
---------- Begin Simulation Statistics ----------
final_tick                               9279678819086                       # Number of ticks from beginning of simulation (restored from checkpoints and never reset)
host_inst_rate                                 131925                       # Simulator instruction rate (inst/s)
host_mem_usage                               17185796                       # Number of bytes of host memory used
host_op_rate                                   168787                       # Simulator op (including micro ops) rate (op/s)
host_seconds                                    75.80                       # Real time elapsed on the host
host_tick_rate                               87042771                       # Simulator tick rate (ticks/s)
sim_freq                                 1000000000000                       # Frequency of simulated ticks
sim_insts                                    10000021                       # Number of instructions simulated
sim_ops                                      12794168                       # Number of ops (including micro ops) simulated
sim_seconds                                  0.006598                       # Number of seconds simulated
sim_ticks                                  6597920586                       # Number of ticks simulated
system.cpu.Branches                                 1                       # Number of branches fetched
system.cpu.committedInsts                          21                       # Number of instructions committed
system.cpu.committedOps                            26                       # Number of ops (including micro ops) committed
system.cpu.dtb.rdAccesses                           5                       # TLB accesses on read requests
system.cpu.dtb.rdMisses                             0                       # TLB misses on read requests
system.cpu.dtb.wrAccesses                           9                       # TLB accesses on write requests
system.cpu.dtb.wrMisses                             0                       # TLB misses on write requests
system.cpu.idle_fraction                            0                       # Percentage of idle cycles
system.cpu.itb.rdAccesses                           0                       # TLB accesses on read requests
system.cpu.itb.rdMisses                             0                       # TLB misses on read requests
system.cpu.itb.wrAccesses                          30                       # TLB accesses on write requests
system.cpu.itb.wrMisses                             0                       # TLB misses on write requests
system.cpu.not_idle_fraction                        1                       # Percentage of non-idle cycles
system.cpu.numCycles                               35                       # number of cpu cycles simulated
system.cpu.numWorkItemsCompleted                    0                       # number of work items this cpu completed
system.cpu.numWorkItemsStarted                      0                       # number of work items this cpu started
system.cpu.num_busy_cycles                         35                       # Number of busy cycles
system.cpu.num_cc_register_reads                   16                       # number of times the CC registers were read
system.cpu.num_cc_register_writes                   6                       # number of times the CC registers were written
system.cpu.num_conditional_control_insts            1                       # number of instructions that are conditional controls
system.cpu.num_fp_alu_accesses                      0                       # Number of float alu accesses
system.cpu.num_fp_insts                             0                       # number of float instructions
system.cpu.num_fp_register_reads                    0                       # number of times the floating registers were read
system.cpu.num_fp_register_writes                   0                       # number of times the floating registers were written
system.cpu.num_func_calls                           0                       # number of times a function call or return occured
system.cpu.num_idle_cycles                          0                       # Number of idle cycles
system.cpu.num_int_alu_accesses                    26                       # Number of integer alu accesses
system.cpu.num_int_insts                           26                       # number of integer instructions
system.cpu.num_int_register_reads                  75                       # number of times the integer registers were read
system.cpu.num_int_register_writes                 16                       # number of times the integer registers were written
system.cpu.num_load_insts                           5                       # Number of load instructions
system.cpu.num_mem_refs                            14                       # number of memory refs
system.cpu.num_store_insts                          9                       # Number of store instructions
system.cpu.num_vec_alu_accesses                     0                       # Number of vector alu accesses
system.cpu.num_vec_insts                            0                       # number of vector instructions
system.cpu.num_vec_register_reads                   0                       # number of times the vector registers were read
system.cpu.num_vec_register_writes                  0                       # number of times the vector registers were written
system.cpu.op_class::No_OpClass                     0      0.00%      0.00% # Class of executed instruction
system.cpu.op_class::IntAlu                        12     46.15%     46.15% # Class of executed instruction
system.cpu.op_class::IntMult                        0      0.00%     46.15% # Class of executed instruction
system.cpu.op_class::IntDiv                         0      0.00%     46.15% # Class of executed instruction
system.cpu.op_class::FloatAdd                       0      0.00%     46.15% # Class of executed instruction
system.cpu.op_class::FloatCmp                       0      0.00%     46.15% # Class of executed instruction
system.cpu.op_class::FloatCvt                       0      0.00%     46.15% # Class of executed instruction
system.cpu.op_class::FloatMult                      0      0.00%     46.15% # Class of executed instruction
system.cpu.op_class::FloatMultAcc                   0      0.00%     46.15% # Class of executed instruction
system.cpu.op_class::FloatDiv                       0      0.00%     46.15% # Class of executed instruction
system.cpu.op_class::FloatMisc                      0      0.00%     46.15% # Class of executed instruction
system.cpu.op_class::FloatSqrt                      0      0.00%     46.15% # Class of executed instruction
system.cpu.op_class::SimdAdd                        0      0.00%     46.15% # Class of executed instruction
system.cpu.op_class::SimdAddAcc                     0      0.00%     46.15% # Class of executed instruction
system.cpu.op_class::SimdAlu                        0      0.00%     46.15% # Class of executed instruction
system.cpu.op_class::SimdCmp                        0      0.00%     46.15% # Class of executed instruction
system.cpu.op_class::SimdCvt                        0      0.00%     46.15% # Class of executed instruction
system.cpu.op_class::SimdMisc                       0      0.00%     46.15% # Class of executed instruction
system.cpu.op_class::SimdMult                       0      0.00%     46.15% # Class of executed instruction
system.cpu.op_class::SimdMultAcc                    0      0.00%     46.15% # Class of executed instruction
system.cpu.op_class::SimdShift                      0      0.00%     46.15% # Class of executed instruction
system.cpu.op_class::SimdShiftAcc                   0      0.00%     46.15% # Class of executed instruction
system.cpu.op_class::SimdDiv                        0      0.00%     46.15% # Class of executed instruction
system.cpu.op_class::SimdSqrt                       0      0.00%     46.15% # Class of executed instruction
system.cpu.op_class::SimdFloatAdd                   0      0.00%     46.15% # Class of executed instruction
system.cpu.op_class::SimdFloatAlu                   0      0.00%     46.15% # Class of executed instruction
system.cpu.op_class::SimdFloatCmp                   0      0.00%     46.15% # Class of executed instruction
system.cpu.op_class::SimdFloatCvt                   0      0.00%     46.15% # Class of executed instruction
system.cpu.op_class::SimdFloatDiv                   0      0.00%     46.15% # Class of executed instruction
system.cpu.op_class::SimdFloatMisc                  0      0.00%     46.15% # Class of executed instruction
system.cpu.op_class::SimdFloatMult                  0      0.00%     46.15% # Class of executed instruction
system.cpu.op_class::SimdFloatMultAcc               0      0.00%     46.15% # Class of executed instruction
system.cpu.op_class::SimdFloatSqrt                  0      0.00%     46.15% # Class of executed instruction
system.cpu.op_class::SimdReduceAdd                  0      0.00%     46.15% # Class of executed instruction
system.cpu.op_class::SimdReduceAlu                  0      0.00%     46.15% # Class of executed instruction
system.cpu.op_class::SimdReduceCmp                  0      0.00%     46.15% # Class of executed instruction
system.cpu.op_class::SimdFloatReduceAdd             0      0.00%     46.15% # Class of executed instruction
system.cpu.op_class::SimdFloatReduceCmp             0      0.00%     46.15% # Class of executed instruction
system.cpu.op_class::SimdAes                        0      0.00%     46.15% # Class of executed instruction
system.cpu.op_class::SimdAesMix                     0      0.00%     46.15% # Class of executed instruction
system.cpu.op_class::SimdSha1Hash                   0      0.00%     46.15% # Class of executed instruction
system.cpu.op_class::SimdSha1Hash2                  0      0.00%     46.15% # Class of executed instruction
system.cpu.op_class::SimdSha256Hash                 0      0.00%     46.15% # Class of executed instruction
system.cpu.op_class::SimdSha256Hash2                0      0.00%     46.15% # Class of executed instruction
system.cpu.op_class::SimdShaSigma2                  0      0.00%     46.15% # Class of executed instruction
system.cpu.op_class::SimdShaSigma3                  0      0.00%     46.15% # Class of executed instruction
system.cpu.op_class::SimdPredAlu                    0      0.00%     46.15% # Class of executed instruction
system.cpu.op_class::MemRead                        5     19.23%     65.38% # Class of executed instruction
system.cpu.op_class::MemWrite                       9     34.62%    100.00% # Class of executed instruction
system.cpu.op_class::FloatMemRead                   0      0.00%    100.00% # Class of executed instruction
system.cpu.op_class::FloatMemWrite                  0      0.00%    100.00% # Class of executed instruction
system.cpu.op_class::IprAccess                      0      0.00%    100.00% # Class of executed instruction
system.cpu.op_class::InstPrefetch                   0      0.00%    100.00% # Class of executed instruction
system.cpu.op_class::total                         26                       # Class of executed instruction
system.cpu.workload.numSyscalls                     0                       # Number of system calls
system.membus.snoop_filter.hit_multi_requests            0                       # Number of requests hitting in the snoop filter with multiple (>1) holders of the requested data.
system.membus.snoop_filter.hit_multi_snoops            0                       # Number of snoops hitting in the snoop filter with multiple (>1) holders of the requested data.
system.membus.snoop_filter.hit_single_requests       114546                       # Number of requests hitting in the snoop filter with a single holder of the requested data.
system.membus.snoop_filter.hit_single_snoops            0                       # Number of snoops hitting in the snoop filter with a single holder of the requested data.
system.membus.snoop_filter.tot_requests        233216                       # Total number of requests made to the snoop filter.
system.membus.snoop_filter.tot_snoops               0                       # Total number of snoops made to the snoop filter.
system.switch_cpus.branchPred.BTBCorrect            0                       # Number of correct BTB predictions (this stat may not work properly.
system.switch_cpus.branchPred.BTBHitPct      0.000000                       # BTB Hit Percentage
system.switch_cpus.branchPred.BTBHits               0                       # Number of BTB hits
system.switch_cpus.branchPred.BTBLookups       369989                       # Number of BTB lookups
system.switch_cpus.branchPred.RASInCorrect           12                       # Number of incorrect RAS predictions.
system.switch_cpus.branchPred.condIncorrect        18697                       # Number of conditional branches incorrect
system.switch_cpus.branchPred.condPredicted      1000570                       # Number of conditional branches predicted
system.switch_cpus.branchPred.indirectHits       347088                       # Number of indirect target hits.
system.switch_cpus.branchPred.indirectLookups       369989                       # Number of indirect predictor lookups.
system.switch_cpus.branchPred.indirectMisses        22901                       # Number of indirect misses.
system.switch_cpus.branchPred.lookups         1027195                       # Number of BP lookups
system.switch_cpus.branchPred.usedRAS           11354                       # Number of times the RAS was used to get a target.
system.switch_cpus.branchPredindirectMispredicted          637                       # Number of mispredicted indirect branches.
system.switch_cpus.cc_regfile_reads           7912820                       # number of cc regfile reads
system.switch_cpus.cc_regfile_writes          4506973                       # number of cc regfile writes
system.switch_cpus.commit.amos                      0                       # Number of atomic instructions committed
system.switch_cpus.commit.branchMispredicts        18774                       # The number of times a branch was mispredicted
system.switch_cpus.commit.branches             908951                       # Number of branches committed
system.switch_cpus.commit.bw_lim_events        350922                       # number cycles where commit BW limit reached
system.switch_cpus.commit.commitSquashedInsts       875792                       # The number of squashed insts skipped by commit
system.switch_cpus.commit.committedInsts     10000000                       # Number of instructions committed
system.switch_cpus.commit.committedOps       12794142                       # Number of ops (including micro ops) committed
system.switch_cpus.commit.committed_per_cycle::samples     23608969                       # Number of insts commited each cycle
system.switch_cpus.commit.committed_per_cycle::mean     0.541919                       # Number of insts commited each cycle
system.switch_cpus.commit.committed_per_cycle::stdev     1.434790                       # Number of insts commited each cycle
system.switch_cpus.commit.committed_per_cycle::underflows            0      0.00%      0.00% # Number of insts commited each cycle
system.switch_cpus.commit.committed_per_cycle::0     18366221     77.79%     77.79% # Number of insts commited each cycle
system.switch_cpus.commit.committed_per_cycle::1      2950366     12.50%     90.29% # Number of insts commited each cycle
system.switch_cpus.commit.committed_per_cycle::2       327023      1.39%     91.68% # Number of insts commited each cycle
system.switch_cpus.commit.committed_per_cycle::3      1084794      4.59%     96.27% # Number of insts commited each cycle
system.switch_cpus.commit.committed_per_cycle::4        20819      0.09%     96.36% # Number of insts commited each cycle
system.switch_cpus.commit.committed_per_cycle::5       255591      1.08%     97.44% # Number of insts commited each cycle
system.switch_cpus.commit.committed_per_cycle::6         5890      0.02%     97.47% # Number of insts commited each cycle
system.switch_cpus.commit.committed_per_cycle::7       247343      1.05%     98.51% # Number of insts commited each cycle
system.switch_cpus.commit.committed_per_cycle::8       350922      1.49%    100.00% # Number of insts commited each cycle
system.switch_cpus.commit.committed_per_cycle::overflows            0      0.00%    100.00% # Number of insts commited each cycle
system.switch_cpus.commit.committed_per_cycle::min_value            0                       # Number of insts commited each cycle
system.switch_cpus.commit.committed_per_cycle::max_value            8                       # Number of insts commited each cycle
system.switch_cpus.commit.committed_per_cycle::total     23608969                       # Number of insts commited each cycle
system.switch_cpus.commit.fp_insts                  0                       # Number of committed floating point instructions.
system.switch_cpus.commit.function_calls        11079                       # Number of function calls committed.
system.switch_cpus.commit.int_insts          12794142                       # Number of committed integer instructions.
system.switch_cpus.commit.loads               2060385                       # Number of loads committed
system.switch_cpus.commit.membars                   0                       # Number of memory barriers committed
system.switch_cpus.commit.mispred_commit_branch        16026                       # mein_hi_hun
system.switch_cpus.commit.op_class_0::No_OpClass            0      0.00%      0.00% # Class of committed instruction
system.switch_cpus.commit.op_class_0::IntAlu      7994416     62.48%     62.48% # Class of committed instruction
system.switch_cpus.commit.op_class_0::IntMult            0      0.00%     62.48% # Class of committed instruction
system.switch_cpus.commit.op_class_0::IntDiv            0      0.00%     62.48% # Class of committed instruction
system.switch_cpus.commit.op_class_0::FloatAdd            0      0.00%     62.48% # Class of committed instruction
system.switch_cpus.commit.op_class_0::FloatCmp            0      0.00%     62.48% # Class of committed instruction
system.switch_cpus.commit.op_class_0::FloatCvt            0      0.00%     62.48% # Class of committed instruction
system.switch_cpus.commit.op_class_0::FloatMult            0      0.00%     62.48% # Class of committed instruction
system.switch_cpus.commit.op_class_0::FloatMultAcc            0      0.00%     62.48% # Class of committed instruction
system.switch_cpus.commit.op_class_0::FloatDiv            0      0.00%     62.48% # Class of committed instruction
system.switch_cpus.commit.op_class_0::FloatMisc            0      0.00%     62.48% # Class of committed instruction
system.switch_cpus.commit.op_class_0::FloatSqrt            0      0.00%     62.48% # Class of committed instruction
system.switch_cpus.commit.op_class_0::SimdAdd            0      0.00%     62.48% # Class of committed instruction
system.switch_cpus.commit.op_class_0::SimdAddAcc            0      0.00%     62.48% # Class of committed instruction
system.switch_cpus.commit.op_class_0::SimdAlu            0      0.00%     62.48% # Class of committed instruction
system.switch_cpus.commit.op_class_0::SimdCmp            0      0.00%     62.48% # Class of committed instruction
system.switch_cpus.commit.op_class_0::SimdCvt            0      0.00%     62.48% # Class of committed instruction
system.switch_cpus.commit.op_class_0::SimdMisc            0      0.00%     62.48% # Class of committed instruction
system.switch_cpus.commit.op_class_0::SimdMult            0      0.00%     62.48% # Class of committed instruction
system.switch_cpus.commit.op_class_0::SimdMultAcc            0      0.00%     62.48% # Class of committed instruction
system.switch_cpus.commit.op_class_0::SimdShift            0      0.00%     62.48% # Class of committed instruction
system.switch_cpus.commit.op_class_0::SimdShiftAcc            0      0.00%     62.48% # Class of committed instruction
system.switch_cpus.commit.op_class_0::SimdDiv            0      0.00%     62.48% # Class of committed instruction
system.switch_cpus.commit.op_class_0::SimdSqrt            0      0.00%     62.48% # Class of committed instruction
system.switch_cpus.commit.op_class_0::SimdFloatAdd            0      0.00%     62.48% # Class of committed instruction
system.switch_cpus.commit.op_class_0::SimdFloatAlu            0      0.00%     62.48% # Class of committed instruction
system.switch_cpus.commit.op_class_0::SimdFloatCmp            0      0.00%     62.48% # Class of committed instruction
system.switch_cpus.commit.op_class_0::SimdFloatCvt            0      0.00%     62.48% # Class of committed instruction
system.switch_cpus.commit.op_class_0::SimdFloatDiv            0      0.00%     62.48% # Class of committed instruction
system.switch_cpus.commit.op_class_0::SimdFloatMisc            0      0.00%     62.48% # Class of committed instruction
system.switch_cpus.commit.op_class_0::SimdFloatMult            0      0.00%     62.48% # Class of committed instruction
system.switch_cpus.commit.op_class_0::SimdFloatMultAcc            0      0.00%     62.48% # Class of committed instruction
system.switch_cpus.commit.op_class_0::SimdFloatSqrt            0      0.00%     62.48% # Class of committed instruction
system.switch_cpus.commit.op_class_0::SimdReduceAdd            0      0.00%     62.48% # Class of committed instruction
system.switch_cpus.commit.op_class_0::SimdReduceAlu            0      0.00%     62.48% # Class of committed instruction
system.switch_cpus.commit.op_class_0::SimdReduceCmp            0      0.00%     62.48% # Class of committed instruction
system.switch_cpus.commit.op_class_0::SimdFloatReduceAdd            0      0.00%     62.48% # Class of committed instruction
system.switch_cpus.commit.op_class_0::SimdFloatReduceCmp            0      0.00%     62.48% # Class of committed instruction
system.switch_cpus.commit.op_class_0::SimdAes            0      0.00%     62.48% # Class of committed instruction
system.switch_cpus.commit.op_class_0::SimdAesMix            0      0.00%     62.48% # Class of committed instruction
system.switch_cpus.commit.op_class_0::SimdSha1Hash            0      0.00%     62.48% # Class of committed instruction
system.switch_cpus.commit.op_class_0::SimdSha1Hash2            0      0.00%     62.48% # Class of committed instruction
system.switch_cpus.commit.op_class_0::SimdSha256Hash            0      0.00%     62.48% # Class of committed instruction
system.switch_cpus.commit.op_class_0::SimdSha256Hash2            0      0.00%     62.48% # Class of committed instruction
system.switch_cpus.commit.op_class_0::SimdShaSigma2            0      0.00%     62.48% # Class of committed instruction
system.switch_cpus.commit.op_class_0::SimdShaSigma3            0      0.00%     62.48% # Class of committed instruction
system.switch_cpus.commit.op_class_0::SimdPredAlu            0      0.00%     62.48% # Class of committed instruction
system.switch_cpus.commit.op_class_0::MemRead      2060385     16.10%     78.59% # Class of committed instruction
system.switch_cpus.commit.op_class_0::MemWrite      2739341     21.41%    100.00% # Class of committed instruction
system.switch_cpus.commit.op_class_0::FloatMemRead            0      0.00%    100.00% # Class of committed instruction
system.switch_cpus.commit.op_class_0::FloatMemWrite            0      0.00%    100.00% # Class of committed instruction
system.switch_cpus.commit.op_class_0::IprAccess            0      0.00%    100.00% # Class of committed instruction
system.switch_cpus.commit.op_class_0::InstPrefetch            0      0.00%    100.00% # Class of committed instruction
system.switch_cpus.commit.op_class_0::total     12794142                       # Class of committed instruction
system.switch_cpus.commit.refs                4799726                       # Number of memory references committed
system.switch_cpus.commit.swp_count                 0                       # Number of s/w prefetches committed
system.switch_cpus.commit.vec_insts                 0                       # Number of committed Vector instructions.
system.switch_cpus.committedInsts            10000000                       # Number of Instructions Simulated
system.switch_cpus.committedOps              12794142                       # Number of Ops (including micro ops) Simulated
system.switch_cpus.cpi                       2.373349                       # CPI: Cycles Per Instruction
system.switch_cpus.cpi_total                 2.373349                       # CPI: Total CPI of All Threads
system.switch_cpus.decode.BlockedCycles      21327152                       # Number of cycles decode is blocked
system.switch_cpus.decode.DecodedInsts       13842410                       # Number of instructions handled by decode
system.switch_cpus.decode.IdleCycles           623710                       # Number of cycles decode is idle
system.switch_cpus.decode.RunCycles            393806                       # Number of cycles decode is running
system.switch_cpus.decode.SquashCycles          18785                       # Number of cycles decode is squashing
system.switch_cpus.decode.UnblockCycles       1369110                       # Number of cycles decode is unblocking
system.switch_cpus.dtb.rdAccesses             2107450                       # TLB accesses on read requests
system.switch_cpus.dtb.rdMisses                  5785                       # TLB misses on read requests
system.switch_cpus.dtb.wrAccesses             2791331                       # TLB accesses on write requests
system.switch_cpus.dtb.wrMisses                     5                       # TLB misses on write requests
system.switch_cpus.fetch.Branches             1027195                       # Number of branches that fetch encountered
system.switch_cpus.fetch.CacheLines            983399                       # Number of cache lines fetched
system.switch_cpus.fetch.Cycles              22714095                       # Number of cycles fetch has run and was not squashing or blocked
system.switch_cpus.fetch.IcacheSquashes          2529                       # Number of outstanding Icache misses that were squashed
system.switch_cpus.fetch.Insts               11260838                       # Number of instructions fetch has processed
system.switch_cpus.fetch.MiscStallCycles           76                       # Number of cycles fetch has spent waiting on interrupts, or bad addresses, or out of MSHRs
system.switch_cpus.fetch.PendingTrapStallCycles          526                       # Number of stall cycles due to pending traps
system.switch_cpus.fetch.SquashCycles           37570                       # Number of cycles fetch has spent squashing
system.switch_cpus.fetch.branchRate          0.043280                       # Number of branch fetches per cycle
system.switch_cpus.fetch.icacheStallCycles       999084                       # Number of cycles fetch is stalled on an Icache miss
system.switch_cpus.fetch.predictedBranches       358442                       # Number of branches that fetch has predicted taken
system.switch_cpus.fetch.rate                0.474470                       # Number of inst fetches per cycle
system.switch_cpus.fetch.rateDist::samples     23732566                       # Number of instructions fetched each cycle (Total)
system.switch_cpus.fetch.rateDist::mean      0.608580                       # Number of instructions fetched each cycle (Total)
system.switch_cpus.fetch.rateDist::stdev     1.937491                       # Number of instructions fetched each cycle (Total)
system.switch_cpus.fetch.rateDist::underflows            0      0.00%      0.00% # Number of instructions fetched each cycle (Total)
system.switch_cpus.fetch.rateDist::0         21150353     89.12%     89.12% # Number of instructions fetched each cycle (Total)
system.switch_cpus.fetch.rateDist::1           277987      1.17%     90.29% # Number of instructions fetched each cycle (Total)
system.switch_cpus.fetch.rateDist::2           215977      0.91%     91.20% # Number of instructions fetched each cycle (Total)
system.switch_cpus.fetch.rateDist::3           192559      0.81%     92.01% # Number of instructions fetched each cycle (Total)
system.switch_cpus.fetch.rateDist::4           184989      0.78%     92.79% # Number of instructions fetched each cycle (Total)
system.switch_cpus.fetch.rateDist::5           165770      0.70%     93.49% # Number of instructions fetched each cycle (Total)
system.switch_cpus.fetch.rateDist::6           307381      1.30%     94.79% # Number of instructions fetched each cycle (Total)
system.switch_cpus.fetch.rateDist::7           157937      0.67%     95.45% # Number of instructions fetched each cycle (Total)
system.switch_cpus.fetch.rateDist::8          1079613      4.55%    100.00% # Number of instructions fetched each cycle (Total)
system.switch_cpus.fetch.rateDist::overflows            0      0.00%    100.00% # Number of instructions fetched each cycle (Total)
system.switch_cpus.fetch.rateDist::min_value            0                       # Number of instructions fetched each cycle (Total)
system.switch_cpus.fetch.rateDist::max_value            8                       # Number of instructions fetched each cycle (Total)
system.switch_cpus.fetch.rateDist::total     23732566                       # Number of instructions fetched each cycle (Total)
system.switch_cpus.fp_regfile_writes               56                       # number of floating regfile writes
system.switch_cpus.idleCycles                     925                       # Total number of cycles that the CPU has spent unscheduled due to idling
system.switch_cpus.iew.Average_branch_resolution_cycles            0                       # sirf mispred wala
system.switch_cpus.iew.branchMispredicts        21429                       # Number of branch mispredicts detected at execute
system.switch_cpus.iew.exec_branches           928112                       # Number of branches executed
system.switch_cpus.iew.exec_nop                     0                       # number of nop insts executed
system.switch_cpus.iew.exec_rate             0.552385                       # Inst execution rate
system.switch_cpus.iew.exec_refs              4899495                       # number of memory reference insts executed
system.switch_cpus.iew.exec_stores            2791331                       # Number of stores executed
system.switch_cpus.iew.exec_swp                     0                       # number of swp insts executed
system.switch_cpus.iew.global_million_exceeded_g            0                       # multiple with  million wala
system.switch_cpus.iew.global_million_timer_g 3361175.124000                       # less than million wala
system.switch_cpus.iew.iewBlockCycles        16513779                       # Number of cycles IEW is blocking
system.switch_cpus.iew.iewDispLoadInsts       2226676                       # Number of dispatched load instructions
system.switch_cpus.iew.iewDispNonSpecInsts            0                       # Number of dispatched non-speculative instructions
system.switch_cpus.iew.iewDispSquashedInsts          123                       # Number of squashed instructions skipped by dispatch
system.switch_cpus.iew.iewDispStoreInsts      2891641                       # Number of dispatched store instructions
system.switch_cpus.iew.iewDispatchedInsts     13669984                       # Number of instructions dispatched to IQ
system.switch_cpus.iew.iewExecLoadInsts       2108164                       # Number of load instructions executed
system.switch_cpus.iew.iewExecSquashedInsts        16492                       # Number of squashed instructions skipped in execute
system.switch_cpus.iew.iewExecutedInsts      13110033                       # Number of executed instructions
system.switch_cpus.iew.iewIQFullEvents          72058                       # Number of times the IQ has become full, causing a stall
system.switch_cpus.iew.iewIdleCycles                0                       # Number of cycles IEW is idle
system.switch_cpus.iew.iewLSQFullEvents             0                       # Number of times the LSQ has become full, causing a stall
system.switch_cpus.iew.iewSquashCycles          18785                       # Number of cycles IEW is squashing
system.switch_cpus.iew.iewUnblockCycles        122034                       # Number of cycles IEW is unblocking
system.switch_cpus.iew.lsq.thread0.blockedLoads            0                       # Number of blocked loads due to partial load-store forwarding
system.switch_cpus.iew.lsq.thread0.cacheBlocked          360                       # Number of times an access to memory failed due to the cache being blocked
system.switch_cpus.iew.lsq.thread0.forwLoads          788                       # Number of loads that had data forwarded from stores
system.switch_cpus.iew.lsq.thread0.ignoredResponses           19                       # Number of memory responses ignored because the instruction is squashed
system.switch_cpus.iew.lsq.thread0.invAddrLoads            0                       # Number of loads ignored due to an invalid address
system.switch_cpus.iew.lsq.thread0.invAddrSwpfs            0                       # Number of software prefetches ignored due to an invalid address
system.switch_cpus.iew.lsq.thread0.memOrderViolation           11                       # Number of memory ordering violations
system.switch_cpus.iew.lsq.thread0.night5           14                       # Number of loads that were rescheduled
system.switch_cpus.iew.lsq.thread0.rescheduledLoads            0                       # Number of loads that were rescheduled
system.switch_cpus.iew.lsq.thread0.squashedLoads       166283                       # Number of loads squashed
system.switch_cpus.iew.lsq.thread0.squashedStores       152290                       # Number of stores squashed
system.switch_cpus.iew.memOrderViolationEvents           11                       # Number of memory order violations
system.switch_cpus.iew.predictedNotTakenIncorrect        19717                       # Number of branches that were predicted not taken incorrectly
system.switch_cpus.iew.predictedTakenIncorrect         1712                       # Number of branches that were predicted taken incorrectly
system.switch_cpus.iew.td                           0                       # Number of td executed instructions
system.switch_cpus.iew.wb_consumers          22326836                       # num instructions consuming a value
system.switch_cpus.iew.wb_count              13100912                       # cumulative count of insts written-back
system.switch_cpus.iew.wb_fanout             0.403489                       # average fanout of values written-back
system.switch_cpus.iew.wb_producers           9008638                       # num instructions producing a value
system.switch_cpus.iew.wb_rate               0.552001                       # insts written-back per cycle
system.switch_cpus.iew.wb_sent               13101280                       # cumulative count of insts sent to commit
system.switch_cpus.int_regfile_reads         26884032                       # number of integer regfile reads
system.switch_cpus.int_regfile_writes         9381174                       # number of integer regfile writes
system.switch_cpus.ipc                       0.421346                       # IPC: Instructions Per Cycle
system.switch_cpus.ipc_total                 0.421346                       # IPC: Total IPC of All Threads
system.switch_cpus.iq.FU_type_0::No_OpClass          792      0.01%      0.01% # Type of FU issued
system.switch_cpus.iq.FU_type_0::IntAlu       8216527     62.59%     62.60% # Type of FU issued
system.switch_cpus.iq.FU_type_0::IntMult            0      0.00%     62.60% # Type of FU issued
system.switch_cpus.iq.FU_type_0::IntDiv             0      0.00%     62.60% # Type of FU issued
system.switch_cpus.iq.FU_type_0::FloatAdd            0      0.00%     62.60% # Type of FU issued
system.switch_cpus.iq.FU_type_0::FloatCmp            0      0.00%     62.60% # Type of FU issued
system.switch_cpus.iq.FU_type_0::FloatCvt            0      0.00%     62.60% # Type of FU issued
system.switch_cpus.iq.FU_type_0::FloatMult            0      0.00%     62.60% # Type of FU issued
system.switch_cpus.iq.FU_type_0::FloatMultAcc            0      0.00%     62.60% # Type of FU issued
system.switch_cpus.iq.FU_type_0::FloatDiv            0      0.00%     62.60% # Type of FU issued
system.switch_cpus.iq.FU_type_0::FloatMisc            0      0.00%     62.60% # Type of FU issued
system.switch_cpus.iq.FU_type_0::FloatSqrt            0      0.00%     62.60% # Type of FU issued
system.switch_cpus.iq.FU_type_0::SimdAdd            0      0.00%     62.60% # Type of FU issued
system.switch_cpus.iq.FU_type_0::SimdAddAcc            0      0.00%     62.60% # Type of FU issued
system.switch_cpus.iq.FU_type_0::SimdAlu            0      0.00%     62.60% # Type of FU issued
system.switch_cpus.iq.FU_type_0::SimdCmp            0      0.00%     62.60% # Type of FU issued
system.switch_cpus.iq.FU_type_0::SimdCvt            0      0.00%     62.60% # Type of FU issued
system.switch_cpus.iq.FU_type_0::SimdMisc            0      0.00%     62.60% # Type of FU issued
system.switch_cpus.iq.FU_type_0::SimdMult            0      0.00%     62.60% # Type of FU issued
system.switch_cpus.iq.FU_type_0::SimdMultAcc            0      0.00%     62.60% # Type of FU issued
system.switch_cpus.iq.FU_type_0::SimdShift            0      0.00%     62.60% # Type of FU issued
system.switch_cpus.iq.FU_type_0::SimdShiftAcc            0      0.00%     62.60% # Type of FU issued
system.switch_cpus.iq.FU_type_0::SimdDiv            0      0.00%     62.60% # Type of FU issued
system.switch_cpus.iq.FU_type_0::SimdSqrt            0      0.00%     62.60% # Type of FU issued
system.switch_cpus.iq.FU_type_0::SimdFloatAdd            0      0.00%     62.60% # Type of FU issued
system.switch_cpus.iq.FU_type_0::SimdFloatAlu            0      0.00%     62.60% # Type of FU issued
system.switch_cpus.iq.FU_type_0::SimdFloatCmp            0      0.00%     62.60% # Type of FU issued
system.switch_cpus.iq.FU_type_0::SimdFloatCvt            0      0.00%     62.60% # Type of FU issued
system.switch_cpus.iq.FU_type_0::SimdFloatDiv            0      0.00%     62.60% # Type of FU issued
system.switch_cpus.iq.FU_type_0::SimdFloatMisc            0      0.00%     62.60% # Type of FU issued
system.switch_cpus.iq.FU_type_0::SimdFloatMult            0      0.00%     62.60% # Type of FU issued
system.switch_cpus.iq.FU_type_0::SimdFloatMultAcc            0      0.00%     62.60% # Type of FU issued
system.switch_cpus.iq.FU_type_0::SimdFloatSqrt            0      0.00%     62.60% # Type of FU issued
system.switch_cpus.iq.FU_type_0::SimdReduceAdd            0      0.00%     62.60% # Type of FU issued
system.switch_cpus.iq.FU_type_0::SimdReduceAlu            0      0.00%     62.60% # Type of FU issued
system.switch_cpus.iq.FU_type_0::SimdReduceCmp            0      0.00%     62.60% # Type of FU issued
system.switch_cpus.iq.FU_type_0::SimdFloatReduceAdd            0      0.00%     62.60% # Type of FU issued
system.switch_cpus.iq.FU_type_0::SimdFloatReduceCmp            0      0.00%     62.60% # Type of FU issued
system.switch_cpus.iq.FU_type_0::SimdAes            0      0.00%     62.60% # Type of FU issued
system.switch_cpus.iq.FU_type_0::SimdAesMix            0      0.00%     62.60% # Type of FU issued
system.switch_cpus.iq.FU_type_0::SimdSha1Hash            0      0.00%     62.60% # Type of FU issued
system.switch_cpus.iq.FU_type_0::SimdSha1Hash2            0      0.00%     62.60% # Type of FU issued
system.switch_cpus.iq.FU_type_0::SimdSha256Hash            0      0.00%     62.60% # Type of FU issued
system.switch_cpus.iq.FU_type_0::SimdSha256Hash2            0      0.00%     62.60% # Type of FU issued
system.switch_cpus.iq.FU_type_0::SimdShaSigma2            0      0.00%     62.60% # Type of FU issued
system.switch_cpus.iq.FU_type_0::SimdShaSigma3            0      0.00%     62.60% # Type of FU issued
system.switch_cpus.iq.FU_type_0::SimdPredAlu            0      0.00%     62.60% # Type of FU issued
system.switch_cpus.iq.FU_type_0::MemRead      2108628     16.06%     78.66% # Type of FU issued
system.switch_cpus.iq.FU_type_0::MemWrite      2800579     21.34%    100.00% # Type of FU issued
system.switch_cpus.iq.FU_type_0::FloatMemRead            0      0.00%    100.00% # Type of FU issued
system.switch_cpus.iq.FU_type_0::FloatMemWrite            0      0.00%    100.00% # Type of FU issued
system.switch_cpus.iq.FU_type_0::IprAccess            0      0.00%    100.00% # Type of FU issued
system.switch_cpus.iq.FU_type_0::InstPrefetch            0      0.00%    100.00% # Type of FU issued
system.switch_cpus.iq.FU_type_0::total       13126526                       # Type of FU issued
system.switch_cpus.iq.fp_alu_accesses               0                       # Number of floating point alu accesses
system.switch_cpus.iq.fp_inst_queue_reads            0                       # Number of floating instruction queue reads
system.switch_cpus.iq.fp_inst_queue_wakeup_accesses            0                       # Number of floating instruction queue wakeup accesses
system.switch_cpus.iq.fp_inst_queue_writes            0                       # Number of floating instruction queue writes
system.switch_cpus.iq.fu_busy_cnt             1058607                       # FU busy when requested
system.switch_cpus.iq.fu_busy_rate           0.080646                       # FU busy rate (busy events/executed inst)
system.switch_cpus.iq.fu_full::No_OpClass            0      0.00%      0.00% # attempts to use FU when none available
system.switch_cpus.iq.fu_full::IntAlu              30      0.00%      0.00% # attempts to use FU when none available
system.switch_cpus.iq.fu_full::IntMult              0      0.00%      0.00% # attempts to use FU when none available
system.switch_cpus.iq.fu_full::IntDiv               0      0.00%      0.00% # attempts to use FU when none available
system.switch_cpus.iq.fu_full::FloatAdd             0      0.00%      0.00% # attempts to use FU when none available
system.switch_cpus.iq.fu_full::FloatCmp             0      0.00%      0.00% # attempts to use FU when none available
system.switch_cpus.iq.fu_full::FloatCvt             0      0.00%      0.00% # attempts to use FU when none available
system.switch_cpus.iq.fu_full::FloatMult            0      0.00%      0.00% # attempts to use FU when none available
system.switch_cpus.iq.fu_full::FloatMultAcc            0      0.00%      0.00% # attempts to use FU when none available
system.switch_cpus.iq.fu_full::FloatDiv             0      0.00%      0.00% # attempts to use FU when none available
system.switch_cpus.iq.fu_full::FloatMisc            0      0.00%      0.00% # attempts to use FU when none available
system.switch_cpus.iq.fu_full::FloatSqrt            0      0.00%      0.00% # attempts to use FU when none available
system.switch_cpus.iq.fu_full::SimdAdd              0      0.00%      0.00% # attempts to use FU when none available
system.switch_cpus.iq.fu_full::SimdAddAcc            0      0.00%      0.00% # attempts to use FU when none available
system.switch_cpus.iq.fu_full::SimdAlu              0      0.00%      0.00% # attempts to use FU when none available
system.switch_cpus.iq.fu_full::SimdCmp              0      0.00%      0.00% # attempts to use FU when none available
system.switch_cpus.iq.fu_full::SimdCvt              0      0.00%      0.00% # attempts to use FU when none available
system.switch_cpus.iq.fu_full::SimdMisc             0      0.00%      0.00% # attempts to use FU when none available
system.switch_cpus.iq.fu_full::SimdMult             0      0.00%      0.00% # attempts to use FU when none available
system.switch_cpus.iq.fu_full::SimdMultAcc            0      0.00%      0.00% # attempts to use FU when none available
system.switch_cpus.iq.fu_full::SimdShift            0      0.00%      0.00% # attempts to use FU when none available
system.switch_cpus.iq.fu_full::SimdShiftAcc            0      0.00%      0.00% # attempts to use FU when none available
system.switch_cpus.iq.fu_full::SimdDiv              0      0.00%      0.00% # attempts to use FU when none available
system.switch_cpus.iq.fu_full::SimdSqrt             0      0.00%      0.00% # attempts to use FU when none available
system.switch_cpus.iq.fu_full::SimdFloatAdd            0      0.00%      0.00% # attempts to use FU when none available
system.switch_cpus.iq.fu_full::SimdFloatAlu            0      0.00%      0.00% # attempts to use FU when none available
system.switch_cpus.iq.fu_full::SimdFloatCmp            0      0.00%      0.00% # attempts to use FU when none available
system.switch_cpus.iq.fu_full::SimdFloatCvt            0      0.00%      0.00% # attempts to use FU when none available
system.switch_cpus.iq.fu_full::SimdFloatDiv            0      0.00%      0.00% # attempts to use FU when none available
system.switch_cpus.iq.fu_full::SimdFloatMisc            0      0.00%      0.00% # attempts to use FU when none available
system.switch_cpus.iq.fu_full::SimdFloatMult            0      0.00%      0.00% # attempts to use FU when none available
system.switch_cpus.iq.fu_full::SimdFloatMultAcc            0      0.00%      0.00% # attempts to use FU when none available
system.switch_cpus.iq.fu_full::SimdFloatSqrt            0      0.00%      0.00% # attempts to use FU when none available
system.switch_cpus.iq.fu_full::SimdReduceAdd            0      0.00%      0.00% # attempts to use FU when none available
system.switch_cpus.iq.fu_full::SimdReduceAlu            0      0.00%      0.00% # attempts to use FU when none available
system.switch_cpus.iq.fu_full::SimdReduceCmp            0      0.00%      0.00% # attempts to use FU when none available
system.switch_cpus.iq.fu_full::SimdFloatReduceAdd            0      0.00%      0.00% # attempts to use FU when none available
system.switch_cpus.iq.fu_full::SimdFloatReduceCmp            0      0.00%      0.00% # attempts to use FU when none available
system.switch_cpus.iq.fu_full::SimdAes              0      0.00%      0.00% # attempts to use FU when none available
system.switch_cpus.iq.fu_full::SimdAesMix            0      0.00%      0.00% # attempts to use FU when none available
system.switch_cpus.iq.fu_full::SimdSha1Hash            0      0.00%      0.00% # attempts to use FU when none available
system.switch_cpus.iq.fu_full::SimdSha1Hash2            0      0.00%      0.00% # attempts to use FU when none available
system.switch_cpus.iq.fu_full::SimdSha256Hash            0      0.00%      0.00% # attempts to use FU when none available
system.switch_cpus.iq.fu_full::SimdSha256Hash2            0      0.00%      0.00% # attempts to use FU when none available
system.switch_cpus.iq.fu_full::SimdShaSigma2            0      0.00%      0.00% # attempts to use FU when none available
system.switch_cpus.iq.fu_full::SimdShaSigma3            0      0.00%      0.00% # attempts to use FU when none available
system.switch_cpus.iq.fu_full::SimdPredAlu            0      0.00%      0.00% # attempts to use FU when none available
system.switch_cpus.iq.fu_full::MemRead         267325     25.25%     25.26% # attempts to use FU when none available
system.switch_cpus.iq.fu_full::MemWrite        791252     74.74%    100.00% # attempts to use FU when none available
system.switch_cpus.iq.fu_full::FloatMemRead            0      0.00%    100.00% # attempts to use FU when none available
system.switch_cpus.iq.fu_full::FloatMemWrite            0      0.00%    100.00% # attempts to use FU when none available
system.switch_cpus.iq.fu_full::IprAccess            0      0.00%    100.00% # attempts to use FU when none available
system.switch_cpus.iq.fu_full::InstPrefetch            0      0.00%    100.00% # attempts to use FU when none available
system.switch_cpus.iq.int_alu_accesses       14184341                       # Number of integer alu accesses
system.switch_cpus.iq.int_inst_queue_reads     51046361                       # Number of integer instruction queue reads
system.switch_cpus.iq.int_inst_queue_wakeup_accesses     13100912                       # Number of integer instruction queue wakeup accesses
system.switch_cpus.iq.int_inst_queue_writes     14545781                       # Number of integer instruction queue writes
system.switch_cpus.iq.iqInstsAdded           13669984                       # Number of instructions added to the IQ (excludes non-spec)
system.switch_cpus.iq.iqInstsIssued          13126526                       # Number of instructions issued
system.switch_cpus.iq.iqSquashedInstsExamined       875786                       # Number of squashed instructions iterated over during squash; mainly for profiling
system.switch_cpus.iq.iqSquashedInstsIssued         2137                       # Number of squashed instructions issued
system.switch_cpus.iq.iqSquashedOperandsExamined      2022311                       # Number of squashed operands that are examined and possibly removed from graph
system.switch_cpus.iq.issued_per_cycle::samples     23732566                       # Number of insts issued each cycle
system.switch_cpus.iq.issued_per_cycle::mean     0.553102                       # Number of insts issued each cycle
system.switch_cpus.iq.issued_per_cycle::stdev     1.227697                       # Number of insts issued each cycle
system.switch_cpus.iq.issued_per_cycle::underflows            0      0.00%      0.00% # Number of insts issued each cycle
system.switch_cpus.iq.issued_per_cycle::0     18207308     76.72%     76.72% # Number of insts issued each cycle
system.switch_cpus.iq.issued_per_cycle::1      2091304      8.81%     85.53% # Number of insts issued each cycle
system.switch_cpus.iq.issued_per_cycle::2      1409485      5.94%     91.47% # Number of insts issued each cycle
system.switch_cpus.iq.issued_per_cycle::3       832982      3.51%     94.98% # Number of insts issued each cycle
system.switch_cpus.iq.issued_per_cycle::4       305615      1.29%     96.27% # Number of insts issued each cycle
system.switch_cpus.iq.issued_per_cycle::5       839675      3.54%     99.81% # Number of insts issued each cycle
system.switch_cpus.iq.issued_per_cycle::6        31574      0.13%     99.94% # Number of insts issued each cycle
system.switch_cpus.iq.issued_per_cycle::7         9957      0.04%     99.98% # Number of insts issued each cycle
system.switch_cpus.iq.issued_per_cycle::8         4666      0.02%    100.00% # Number of insts issued each cycle
system.switch_cpus.iq.issued_per_cycle::overflows            0      0.00%    100.00% # Number of insts issued each cycle
system.switch_cpus.iq.issued_per_cycle::min_value            0                       # Number of insts issued each cycle
system.switch_cpus.iq.issued_per_cycle::max_value            8                       # Number of insts issued each cycle
system.switch_cpus.iq.issued_per_cycle::total     23732566                       # Number of insts issued each cycle
system.switch_cpus.iq.rate                   0.553080                       # Inst issue rate
system.switch_cpus.iq.vec_alu_accesses              0                       # Number of vector alu accesses
system.switch_cpus.iq.vec_inst_queue_reads            0                       # Number of vector instruction queue reads
system.switch_cpus.iq.vec_inst_queue_wakeup_accesses            0                       # Number of vector instruction queue wakeup accesses
system.switch_cpus.iq.vec_inst_queue_writes            0                       # Number of vector instruction queue writes
system.switch_cpus.itb.rdAccesses                   0                       # TLB accesses on read requests
system.switch_cpus.itb.rdMisses                     0                       # TLB misses on read requests
system.switch_cpus.itb.wrAccesses              983488                       # TLB accesses on write requests
system.switch_cpus.itb.wrMisses                    91                       # TLB misses on write requests
system.switch_cpus.memDep0.conflictingLoads          269                       # Number of conflicting loads.
system.switch_cpus.memDep0.conflictingStores         5444                       # Number of conflicting stores.
system.switch_cpus.memDep0.insertedLoads      2226676                       # Number of loads inserted to the mem dependence unit.
system.switch_cpus.memDep0.insertedStores      2891641                       # Number of stores inserted to the mem dependence unit.
system.switch_cpus.misc_regfile_reads         6789971                       # number of misc regfile reads
system.switch_cpus.misc_regfile_writes              1                       # number of misc regfile writes
system.switch_cpus.numCycles                 23733491                       # number of cpu cycles simulated
system.switch_cpus.numWorkItemsCompleted            0                       # number of work items this cpu completed
system.switch_cpus.numWorkItemsStarted              0                       # number of work items this cpu started
system.switch_cpus.rename.BlockCycles        17654207                       # Number of cycles rename is blocking
system.switch_cpus.rename.CommittedMaps      13609829                       # Number of HB maps that are committed
system.switch_cpus.rename.IQFullEvents        3613720                       # Number of times rename has blocked due to IQ full
system.switch_cpus.rename.IdleCycles          1065907                       # Number of cycles rename is idle
system.switch_cpus.rename.ROBFullEvents           492                       # Number of times rename has blocked due to ROB full
system.switch_cpus.rename.RenameLookups      43954432                       # Number of register rename lookups that rename has made
system.switch_cpus.rename.RenamedInsts       13773443                       # Number of instructions processed by rename
system.switch_cpus.rename.RenamedOperands     14641802                       # Number of destination operands rename has renamed
system.switch_cpus.rename.RunCycles           1264965                       # Number of cycles rename is running
system.switch_cpus.rename.SQFullEvents            422                       # Number of times rename has blocked due to SQ full
system.switch_cpus.rename.SquashCycles          18785                       # Number of cycles rename is squashing
system.switch_cpus.rename.UnblockCycles       3728699                       # Number of cycles rename is unblocking
system.switch_cpus.rename.UndoneMaps          1031901                       # Number of HB maps that are undone due to squashing
system.switch_cpus.rename.int_rename_lookups     28450229                       # Number of integer rename lookups
system.switch_cpus.rename.serializeStallCycles            0                       # count of cycles rename stalled for serializing inst
system.switch_cpus.rename.serializingInsts            0                       # count of serializing insts renamed
system.switch_cpus.rename.skidInsts           7206102                       # count of insts added to the skid buffer
system.switch_cpus.rename.tempSerializingInsts            0                       # count of temporary serializing insts renamed
system.switch_cpus.rob.rob_reads             36927981                       # The number of ROB reads
system.switch_cpus.rob.rob_writes            27465793                       # The number of ROB writes
system.switch_cpus.timesIdled                      14                       # Number of times that the entire CPU went into an idle state and unscheduled itself
system.tol2bus.snoop_filter.hit_multi_requests            0                       # Number of requests hitting in the snoop filter with multiple (>1) holders of the requested data.
system.tol2bus.snoop_filter.hit_multi_snoops            0                       # Number of snoops hitting in the snoop filter with multiple (>1) holders of the requested data.
system.tol2bus.snoop_filter.hit_single_requests       122431                       # Number of requests hitting in the snoop filter with a single holder of the requested data.
system.tol2bus.snoop_filter.hit_single_snoops          368                       # Number of snoops hitting in the snoop filter with a single holder of the requested data.
system.tol2bus.snoop_filter.tot_requests       245385                       # Total number of requests made to the snoop filter.
system.tol2bus.snoop_filter.tot_snoops            368                       # Total number of snoops made to the snoop filter.
system.membus.pwrStateResidencyTicks::UNDEFINED 9279678819086                       # Cumulative time (in ticks) in various power states
system.membus.trans_dist::ReadResp             118665                       # Transaction distribution
system.membus.trans_dist::WritebackDirty        45053                       # Transaction distribution
system.membus.trans_dist::CleanEvict            69493                       # Transaction distribution
system.membus.trans_dist::ReadExReq                 5                       # Transaction distribution
system.membus.trans_dist::ReadExResp                5                       # Transaction distribution
system.membus.trans_dist::ReadSharedReq        118665                       # Transaction distribution
system.membus.pkt_count_system.l2.mem_side::system.mem_ctrls.port       351886                       # Packet count per connected master and slave (bytes)
system.membus.pkt_count_system.l2.mem_side::total       351886                       # Packet count per connected master and slave (bytes)
system.membus.pkt_count::total                 351886                       # Packet count per connected master and slave (bytes)
system.membus.pkt_size_system.l2.mem_side::system.mem_ctrls.port     10478272                       # Cumulative packet size per connected master and slave (bytes)
system.membus.pkt_size_system.l2.mem_side::total     10478272                       # Cumulative packet size per connected master and slave (bytes)
system.membus.pkt_size::total                10478272                       # Cumulative packet size per connected master and slave (bytes)
system.membus.snoops                                0                       # Total snoops (count)
system.membus.snoopTraffic                          0                       # Total snoop traffic (bytes)
system.membus.snoop_fanout::samples            118670                       # Request fanout histogram
system.membus.snoop_fanout::mean                    0                       # Request fanout histogram
system.membus.snoop_fanout::stdev                   0                       # Request fanout histogram
system.membus.snoop_fanout::underflows              0      0.00%      0.00% # Request fanout histogram
system.membus.snoop_fanout::0                  118670    100.00%    100.00% # Request fanout histogram
system.membus.snoop_fanout::1                       0      0.00%    100.00% # Request fanout histogram
system.membus.snoop_fanout::overflows               0      0.00%    100.00% # Request fanout histogram
system.membus.snoop_fanout::min_value               0                       # Request fanout histogram
system.membus.snoop_fanout::max_value               0                       # Request fanout histogram
system.membus.snoop_fanout::total              118670                       # Request fanout histogram
system.membus.reqLayer2.occupancy           486187086                       # Layer occupancy (ticks)
system.membus.reqLayer2.utilization               7.4                       # Layer utilization (%)
system.membus.respLayer1.occupancy          617806546                       # Layer occupancy (ticks)
system.membus.respLayer1.utilization              9.4                       # Layer utilization (%)
system.switch_cpus.pwrStateResidencyTicks::OFF   6597920586                       # Cumulative time (in ticks) in various power states
system.switch_cpus.dtb.walker.pwrStateResidencyTicks::UNDEFINED 9279678819086                       # Cumulative time (in ticks) in various power states
system.switch_cpus.itb.walker.pwrStateResidencyTicks::UNDEFINED 9279678819086                       # Cumulative time (in ticks) in various power states
system.tol2bus.pwrStateResidencyTicks::UNDEFINED 9279678819086                       # Cumulative time (in ticks) in various power states
system.tol2bus.trans_dist::ReadResp            122921                       # Transaction distribution
system.tol2bus.trans_dist::WritebackDirty        94051                       # Transaction distribution
system.tol2bus.trans_dist::CleanEvict          143255                       # Transaction distribution
system.tol2bus.trans_dist::ReadExReq               33                       # Transaction distribution
system.tol2bus.trans_dist::ReadExResp              33                       # Transaction distribution
system.tol2bus.trans_dist::ReadCleanReq            11                       # Transaction distribution
system.tol2bus.trans_dist::ReadSharedReq       122910                       # Transaction distribution
system.tol2bus.pkt_count_system.cpu.icache.mem_side::system.l2.cpu_side           22                       # Packet count per connected master and slave (bytes)
system.tol2bus.pkt_count_system.cpu.dcache.mem_side::system.l2.cpu_side       368317                       # Packet count per connected master and slave (bytes)
system.tol2bus.pkt_count::total                368339                       # Packet count per connected master and slave (bytes)
system.tol2bus.pkt_size_system.cpu.icache.mem_side::system.l2.cpu_side          704                       # Cumulative packet size per connected master and slave (bytes)
system.tol2bus.pkt_size_system.cpu.dcache.mem_side::system.l2.cpu_side     11004224                       # Cumulative packet size per connected master and slave (bytes)
system.tol2bus.pkt_size::total               11004928                       # Cumulative packet size per connected master and slave (bytes)
system.tol2bus.snoops                          114875                       # Total snoops (count)
system.tol2bus.snoopTraffic                   2883392                       # Total snoop traffic (bytes)
system.tol2bus.snoop_fanout::samples           237829                       # Request fanout histogram
system.tol2bus.snoop_fanout::mean            0.001547                       # Request fanout histogram
system.tol2bus.snoop_fanout::stdev           0.039306                       # Request fanout histogram
system.tol2bus.snoop_fanout::underflows             0      0.00%      0.00% # Request fanout histogram
system.tol2bus.snoop_fanout::0                 237461     99.85%     99.85% # Request fanout histogram
system.tol2bus.snoop_fanout::1                    368      0.15%    100.00% # Request fanout histogram
system.tol2bus.snoop_fanout::2                      0      0.00%    100.00% # Request fanout histogram
system.tol2bus.snoop_fanout::3                      0      0.00%    100.00% # Request fanout histogram
system.tol2bus.snoop_fanout::4                      0      0.00%    100.00% # Request fanout histogram
system.tol2bus.snoop_fanout::overflows              0      0.00%    100.00% # Request fanout histogram
system.tol2bus.snoop_fanout::min_value              0                       # Request fanout histogram
system.tol2bus.snoop_fanout::max_value              1                       # Request fanout histogram
system.tol2bus.snoop_fanout::total             237829                       # Request fanout histogram
system.tol2bus.reqLayer0.occupancy           95457416                       # Layer occupancy (ticks)
system.tol2bus.reqLayer0.utilization              1.4                       # Layer utilization (%)
system.tol2bus.respLayer1.occupancy         102529458                       # Layer occupancy (ticks)
system.tol2bus.respLayer1.utilization             1.6                       # Layer utilization (%)
system.tol2bus.respLayer0.occupancy              6672                       # Layer occupancy (ticks)
system.tol2bus.respLayer0.utilization             0.0                       # Layer utilization (%)
system.voltage_domain.voltage                       1                       # Voltage in Volts
system.clk_domain.clock                          1000                       # Clock period in ticks
system.l2.pwrStateResidencyTicks::UNDEFINED 9279678819086                       # Cumulative time (in ticks) in various power states
system.l2.demand_hits::.switch_cpus.data         4284                       # number of demand (read+write) hits
system.l2.demand_hits::total                     4284                       # number of demand (read+write) hits
system.l2.overall_hits::.switch_cpus.data         4284                       # number of overall hits
system.l2.overall_hits::total                    4284                       # number of overall hits
system.l2.demand_misses::.cpu.inst                  3                       # number of demand (read+write) misses
system.l2.demand_misses::.cpu.data                  6                       # number of demand (read+write) misses
system.l2.demand_misses::.switch_cpus.inst            8                       # number of demand (read+write) misses
system.l2.demand_misses::.switch_cpus.data       118653                       # number of demand (read+write) misses
system.l2.demand_misses::total                 118670                       # number of demand (read+write) misses
system.l2.overall_misses::.cpu.inst                 3                       # number of overall misses
system.l2.overall_misses::.cpu.data                 6                       # number of overall misses
system.l2.overall_misses::.switch_cpus.inst            8                       # number of overall misses
system.l2.overall_misses::.switch_cpus.data       118653                       # number of overall misses
system.l2.overall_misses::total                118670                       # number of overall misses
system.l2.demand_miss_latency::.switch_cpus.inst       694444                       # number of demand (read+write) miss cycles
system.l2.demand_miss_latency::.switch_cpus.data   9026031720                       # number of demand (read+write) miss cycles
system.l2.demand_miss_latency::total       9026726164                       # number of demand (read+write) miss cycles
system.l2.overall_miss_latency::.switch_cpus.inst       694444                       # number of overall miss cycles
system.l2.overall_miss_latency::.switch_cpus.data   9026031720                       # number of overall miss cycles
system.l2.overall_miss_latency::total      9026726164                       # number of overall miss cycles
system.l2.demand_accesses::.cpu.inst                3                       # number of demand (read+write) accesses
system.l2.demand_accesses::.cpu.data                6                       # number of demand (read+write) accesses
system.l2.demand_accesses::.switch_cpus.inst            8                       # number of demand (read+write) accesses
system.l2.demand_accesses::.switch_cpus.data       122937                       # number of demand (read+write) accesses
system.l2.demand_accesses::total               122954                       # number of demand (read+write) accesses
system.l2.overall_accesses::.cpu.inst               3                       # number of overall (read+write) accesses
system.l2.overall_accesses::.cpu.data               6                       # number of overall (read+write) accesses
system.l2.overall_accesses::.switch_cpus.inst            8                       # number of overall (read+write) accesses
system.l2.overall_accesses::.switch_cpus.data       122937                       # number of overall (read+write) accesses
system.l2.overall_accesses::total              122954                       # number of overall (read+write) accesses
system.l2.demand_miss_rate::.cpu.inst               1                       # miss rate for demand accesses
system.l2.demand_miss_rate::.cpu.data               1                       # miss rate for demand accesses
system.l2.demand_miss_rate::.switch_cpus.inst            1                       # miss rate for demand accesses
system.l2.demand_miss_rate::.switch_cpus.data     0.965153                       # miss rate for demand accesses
system.l2.demand_miss_rate::total            0.965158                       # miss rate for demand accesses
system.l2.overall_miss_rate::.cpu.inst              1                       # miss rate for overall accesses
system.l2.overall_miss_rate::.cpu.data              1                       # miss rate for overall accesses
system.l2.overall_miss_rate::.switch_cpus.inst            1                       # miss rate for overall accesses
system.l2.overall_miss_rate::.switch_cpus.data     0.965153                       # miss rate for overall accesses
system.l2.overall_miss_rate::total           0.965158                       # miss rate for overall accesses
system.l2.demand_avg_miss_latency::.switch_cpus.inst 86805.500000                       # average overall miss latency
system.l2.demand_avg_miss_latency::.switch_cpus.data 76070.826022                       # average overall miss latency
system.l2.demand_avg_miss_latency::total 76065.780433                       # average overall miss latency
system.l2.overall_avg_miss_latency::.switch_cpus.inst 86805.500000                       # average overall miss latency
system.l2.overall_avg_miss_latency::.switch_cpus.data 76070.826022                       # average overall miss latency
system.l2.overall_avg_miss_latency::total 76065.780433                       # average overall miss latency
system.l2.blocked_cycles::no_mshrs                  0                       # number of cycles access was blocked
system.l2.blocked_cycles::no_targets                0                       # number of cycles access was blocked
system.l2.blocked::no_mshrs                         0                       # number of cycles access was blocked
system.l2.blocked::no_targets                       0                       # number of cycles access was blocked
system.l2.avg_blocked_cycles::no_mshrs            nan                       # average number of cycles each access was blocked
system.l2.avg_blocked_cycles::no_targets          nan                       # average number of cycles each access was blocked
system.l2.writebacks::.writebacks               45053                       # number of writebacks
system.l2.writebacks::total                     45053                       # number of writebacks
system.l2.demand_mshr_misses::.switch_cpus.inst            8                       # number of demand (read+write) MSHR misses
system.l2.demand_mshr_misses::.switch_cpus.data       118653                       # number of demand (read+write) MSHR misses
system.l2.demand_mshr_misses::total            118661                       # number of demand (read+write) MSHR misses
system.l2.overall_mshr_misses::.switch_cpus.inst            8                       # number of overall MSHR misses
system.l2.overall_mshr_misses::.switch_cpus.data       118653                       # number of overall MSHR misses
system.l2.overall_mshr_misses::total           118661                       # number of overall MSHR misses
system.l2.demand_mshr_miss_latency::.switch_cpus.inst       648750                       # number of demand (read+write) MSHR miss cycles
system.l2.demand_mshr_miss_latency::.switch_cpus.data   8349626232                       # number of demand (read+write) MSHR miss cycles
system.l2.demand_mshr_miss_latency::total   8350274982                       # number of demand (read+write) MSHR miss cycles
system.l2.overall_mshr_miss_latency::.switch_cpus.inst       648750                       # number of overall MSHR miss cycles
system.l2.overall_mshr_miss_latency::.switch_cpus.data   8349626232                       # number of overall MSHR miss cycles
system.l2.overall_mshr_miss_latency::total   8350274982                       # number of overall MSHR miss cycles
system.l2.demand_mshr_miss_rate::.switch_cpus.inst            1                       # mshr miss rate for demand accesses
system.l2.demand_mshr_miss_rate::.switch_cpus.data     0.965153                       # mshr miss rate for demand accesses
system.l2.demand_mshr_miss_rate::total       0.965085                       # mshr miss rate for demand accesses
system.l2.overall_mshr_miss_rate::.switch_cpus.inst            1                       # mshr miss rate for overall accesses
system.l2.overall_mshr_miss_rate::.switch_cpus.data     0.965153                       # mshr miss rate for overall accesses
system.l2.overall_mshr_miss_rate::total      0.965085                       # mshr miss rate for overall accesses
system.l2.demand_avg_mshr_miss_latency::.switch_cpus.inst 81093.750000                       # average overall mshr miss latency
system.l2.demand_avg_mshr_miss_latency::.switch_cpus.data 70370.123233                       # average overall mshr miss latency
system.l2.demand_avg_mshr_miss_latency::total 70370.846209                       # average overall mshr miss latency
system.l2.overall_avg_mshr_miss_latency::.switch_cpus.inst 81093.750000                       # average overall mshr miss latency
system.l2.overall_avg_mshr_miss_latency::.switch_cpus.data 70370.123233                       # average overall mshr miss latency
system.l2.overall_avg_mshr_miss_latency::total 70370.846209                       # average overall mshr miss latency
system.l2.replacements                         114875                       # number of replacements
system.l2.csize                                     0                       # Cache sizes in total
system.l2.WritebackDirty_hits::.writebacks        48998                       # number of WritebackDirty hits
system.l2.WritebackDirty_hits::total            48998                       # number of WritebackDirty hits
system.l2.WritebackDirty_accesses::.writebacks        48998                       # number of WritebackDirty accesses(hits+misses)
system.l2.WritebackDirty_accesses::total        48998                       # number of WritebackDirty accesses(hits+misses)
system.l2.CleanEvict_mshr_misses::.writebacks           39                       # number of CleanEvict MSHR misses
system.l2.CleanEvict_mshr_misses::total            39                       # number of CleanEvict MSHR misses
system.l2.CleanEvict_mshr_miss_rate::.writebacks          inf                       # mshr miss rate for CleanEvict accesses
system.l2.CleanEvict_mshr_miss_rate::total          inf                       # mshr miss rate for CleanEvict accesses
system.l2.ReadExReq_hits::.switch_cpus.data           28                       # number of ReadExReq hits
system.l2.ReadExReq_hits::total                    28                       # number of ReadExReq hits
system.l2.ReadExReq_misses::.cpu.data               3                       # number of ReadExReq misses
system.l2.ReadExReq_misses::.switch_cpus.data            2                       # number of ReadExReq misses
system.l2.ReadExReq_misses::total                   5                       # number of ReadExReq misses
system.l2.ReadExReq_miss_latency::.switch_cpus.data       130938                       # number of ReadExReq miss cycles
system.l2.ReadExReq_miss_latency::total        130938                       # number of ReadExReq miss cycles
system.l2.ReadExReq_accesses::.cpu.data             3                       # number of ReadExReq accesses(hits+misses)
system.l2.ReadExReq_accesses::.switch_cpus.data           30                       # number of ReadExReq accesses(hits+misses)
system.l2.ReadExReq_accesses::total                33                       # number of ReadExReq accesses(hits+misses)
system.l2.ReadExReq_miss_rate::.cpu.data            1                       # miss rate for ReadExReq accesses
system.l2.ReadExReq_miss_rate::.switch_cpus.data     0.066667                       # miss rate for ReadExReq accesses
system.l2.ReadExReq_miss_rate::total         0.151515                       # miss rate for ReadExReq accesses
system.l2.ReadExReq_avg_miss_latency::.switch_cpus.data        65469                       # average ReadExReq miss latency
system.l2.ReadExReq_avg_miss_latency::total 26187.600000                       # average ReadExReq miss latency
system.l2.ReadExReq_mshr_misses::.switch_cpus.data            2                       # number of ReadExReq MSHR misses
system.l2.ReadExReq_mshr_misses::total              2                       # number of ReadExReq MSHR misses
system.l2.ReadExReq_mshr_miss_latency::.switch_cpus.data       119726                       # number of ReadExReq MSHR miss cycles
system.l2.ReadExReq_mshr_miss_latency::total       119726                       # number of ReadExReq MSHR miss cycles
system.l2.ReadExReq_mshr_miss_rate::.switch_cpus.data     0.066667                       # mshr miss rate for ReadExReq accesses
system.l2.ReadExReq_mshr_miss_rate::total     0.060606                       # mshr miss rate for ReadExReq accesses
system.l2.ReadExReq_avg_mshr_miss_latency::.switch_cpus.data        59863                       # average ReadExReq mshr miss latency
system.l2.ReadExReq_avg_mshr_miss_latency::total        59863                       # average ReadExReq mshr miss latency
system.l2.ReadCleanReq_misses::.cpu.inst            3                       # number of ReadCleanReq misses
system.l2.ReadCleanReq_misses::.switch_cpus.inst            8                       # number of ReadCleanReq misses
system.l2.ReadCleanReq_misses::total               11                       # number of ReadCleanReq misses
system.l2.ReadCleanReq_miss_latency::.switch_cpus.inst       694444                       # number of ReadCleanReq miss cycles
system.l2.ReadCleanReq_miss_latency::total       694444                       # number of ReadCleanReq miss cycles
system.l2.ReadCleanReq_accesses::.cpu.inst            3                       # number of ReadCleanReq accesses(hits+misses)
system.l2.ReadCleanReq_accesses::.switch_cpus.inst            8                       # number of ReadCleanReq accesses(hits+misses)
system.l2.ReadCleanReq_accesses::total             11                       # number of ReadCleanReq accesses(hits+misses)
system.l2.ReadCleanReq_miss_rate::.cpu.inst            1                       # miss rate for ReadCleanReq accesses
system.l2.ReadCleanReq_miss_rate::.switch_cpus.inst            1                       # miss rate for ReadCleanReq accesses
system.l2.ReadCleanReq_miss_rate::total             1                       # miss rate for ReadCleanReq accesses
system.l2.ReadCleanReq_avg_miss_latency::.switch_cpus.inst 86805.500000                       # average ReadCleanReq miss latency
system.l2.ReadCleanReq_avg_miss_latency::total 63131.272727                       # average ReadCleanReq miss latency
system.l2.ReadCleanReq_mshr_misses::.switch_cpus.inst            8                       # number of ReadCleanReq MSHR misses
system.l2.ReadCleanReq_mshr_misses::total            8                       # number of ReadCleanReq MSHR misses
system.l2.ReadCleanReq_mshr_miss_latency::.switch_cpus.inst       648750                       # number of ReadCleanReq MSHR miss cycles
[...]
system.cpu.itb_walker_cache.blocked_cycles::no_mshrs            0                       # number of cycles access was blocked
system.cpu.itb_walker_cache.blocked_cycles::no_targets            0                       # number of cycles access was blocked
system.cpu.itb_walker_cache.blocked::no_mshrs            0                       # number of cycles access was blocked
system.cpu.itb_walker_cache.blocked::no_targets            0                       # number of cycles access was blocked
system.cpu.itb_walker_cache.avg_blocked_cycles::no_mshrs          nan                       # average number of cycles each access was blocked
system.cpu.itb_walker_cache.avg_blocked_cycles::no_targets          nan                       # average number of cycles each access was blocked
system.cpu.itb_walker_cache.replacements            0                       # number of replacements
system.cpu.itb_walker_cache.csize                   0                       # Cache sizes in total
system.cpu.itb_walker_cache.tags.pwrStateResidencyTicks::UNDEFINED 9279678819086                       # Cumulative time (in ticks) in various power states
system.cpu.itb_walker_cache.tags.tagsinuse            0                       # Cycle average of tags in use
system.cpu.itb_walker_cache.tags.total_refs            0                       # Total number of references to valid blocks.
system.cpu.itb_walker_cache.tags.sampled_refs            0                       # Sample count of references to valid blocks.
system.cpu.itb_walker_cache.tags.avg_refs          nan                       # Average number of references to valid blocks.
system.cpu.itb_walker_cache.tags.warmup_cycle            0                       # Cycle when the warmup percentage was hit.
system.cpu.itb_walker_cache.tags.tag_accesses            0                       # Number of tag accesses
system.cpu.itb_walker_cache.tags.data_accesses            0                       # Number of data accesses
system.cpu.itb.walker.pwrStateResidencyTicks::UNDEFINED 9279678819086                       # Cumulative time (in ticks) in various power states
system.cpu.dtb_walker_cache.pwrStateResidencyTicks::UNDEFINED 9279678819086                       # Cumulative time (in ticks) in various power states
system.cpu.dtb_walker_cache.blocked_cycles::no_mshrs            0                       # number of cycles access was blocked
system.cpu.dtb_walker_cache.blocked_cycles::no_targets            0                       # number of cycles access was blocked
system.cpu.dtb_walker_cache.blocked::no_mshrs            0                       # number of cycles access was blocked
system.cpu.dtb_walker_cache.blocked::no_targets            0                       # number of cycles access was blocked
system.cpu.dtb_walker_cache.avg_blocked_cycles::no_mshrs          nan                       # average number of cycles each access was blocked
system.cpu.dtb_walker_cache.avg_blocked_cycles::no_targets          nan                       # average number of cycles each access was blocked
system.cpu.dtb_walker_cache.replacements            0                       # number of replacements
system.cpu.dtb_walker_cache.csize                   0                       # Cache sizes in total
system.cpu.dtb_walker_cache.tags.pwrStateResidencyTicks::UNDEFINED 9279678819086                       # Cumulative time (in ticks) in various power states
system.cpu.dtb_walker_cache.tags.tagsinuse            0                       # Cycle average of tags in use
system.cpu.dtb_walker_cache.tags.total_refs            0                       # Total number of references to valid blocks.
system.cpu.dtb_walker_cache.tags.sampled_refs            0                       # Sample count of references to valid blocks.
system.cpu.dtb_walker_cache.tags.avg_refs          nan                       # Average number of references to valid blocks.
system.cpu.dtb_walker_cache.tags.warmup_cycle            0                       # Cycle when the warmup percentage was hit.
system.cpu.dtb_walker_cache.tags.tag_accesses            0                       # Number of tag accesses
system.cpu.dtb_walker_cache.tags.data_accesses            0                       # Number of data accesses
system.cpu.dcache.pwrStateResidencyTicks::UNDEFINED 9279678819086                       # Cumulative time (in ticks) in various power states
system.cpu.dcache.demand_hits::.cpu.data            8                       # number of demand (read+write) hits
system.cpu.dcache.demand_hits::.switch_cpus.data      4694043                       # number of demand (read+write) hits
system.cpu.dcache.demand_hits::total          4694051                       # number of demand (read+write) hits
system.cpu.dcache.overall_hits::.cpu.data            8                       # number of overall hits
system.cpu.dcache.overall_hits::.switch_cpus.data      4694043                       # number of overall hits
system.cpu.dcache.overall_hits::total         4694051                       # number of overall hits
system.cpu.dcache.demand_misses::.cpu.data            6                       # number of demand (read+write) misses
system.cpu.dcache.demand_misses::.switch_cpus.data       151895                       # number of demand (read+write) misses
system.cpu.dcache.demand_misses::total         151901                       # number of demand (read+write) misses
system.cpu.dcache.overall_misses::.cpu.data            6                       # number of overall misses
system.cpu.dcache.overall_misses::.switch_cpus.data       151895                       # number of overall misses
system.cpu.dcache.overall_misses::total        151901                       # number of overall misses
system.cpu.dcache.demand_miss_latency::.switch_cpus.data  11065512555                       # number of demand (read+write) miss cycles
system.cpu.dcache.demand_miss_latency::total  11065512555                       # number of demand (read+write) miss cycles
system.cpu.dcache.overall_miss_latency::.switch_cpus.data  11065512555                       # number of overall miss cycles
system.cpu.dcache.overall_miss_latency::total  11065512555                       # number of overall miss cycles
system.cpu.dcache.demand_accesses::.cpu.data           14                       # number of demand (read+write) accesses
system.cpu.dcache.demand_accesses::.switch_cpus.data      4845938                       # number of demand (read+write) accesses
system.cpu.dcache.demand_accesses::total      4845952                       # number of demand (read+write) accesses
system.cpu.dcache.overall_accesses::.cpu.data           14                       # number of overall (read+write) accesses
system.cpu.dcache.overall_accesses::.switch_cpus.data      4845938                       # number of overall (read+write) accesses
system.cpu.dcache.overall_accesses::total      4845952                       # number of overall (read+write) accesses
system.cpu.dcache.demand_miss_rate::.cpu.data     0.428571                       # miss rate for demand accesses
system.cpu.dcache.demand_miss_rate::.switch_cpus.data     0.031345                       # miss rate for demand accesses
system.cpu.dcache.demand_miss_rate::total     0.031346                       # miss rate for demand accesses
system.cpu.dcache.overall_miss_rate::.cpu.data     0.428571                       # miss rate for overall accesses
system.cpu.dcache.overall_miss_rate::.switch_cpus.data     0.031345                       # miss rate for overall accesses
system.cpu.dcache.overall_miss_rate::total     0.031346                       # miss rate for overall accesses
system.cpu.dcache.demand_avg_miss_latency::.switch_cpus.data 72849.748543                       # average overall miss latency
system.cpu.dcache.demand_avg_miss_latency::total 72846.871021                       # average overall miss latency
system.cpu.dcache.overall_avg_miss_latency::.switch_cpus.data 72849.748543                       # average overall miss latency
system.cpu.dcache.overall_avg_miss_latency::total 72846.871021                       # average overall miss latency
system.cpu.dcache.blocked_cycles::no_mshrs        40921                       # number of cycles access was blocked
system.cpu.dcache.blocked_cycles::no_targets            0                       # number of cycles access was blocked
system.cpu.dcache.blocked::no_mshrs              2569                       # number of cycles access was blocked
system.cpu.dcache.blocked::no_targets               0                       # number of cycles access was blocked
system.cpu.dcache.avg_blocked_cycles::no_mshrs    15.928766                       # average number of cycles each access was blocked
system.cpu.dcache.avg_blocked_cycles::no_targets          nan                       # average number of cycles each access was blocked
system.cpu.dcache.writebacks::.writebacks        48998                       # number of writebacks
system.cpu.dcache.writebacks::total             48998                       # number of writebacks
system.cpu.dcache.demand_mshr_hits::.switch_cpus.data        28958                       # number of demand (read+write) MSHR hits
system.cpu.dcache.demand_mshr_hits::total        28958                       # number of demand (read+write) MSHR hits
system.cpu.dcache.overall_mshr_hits::.switch_cpus.data        28958                       # number of overall MSHR hits
system.cpu.dcache.overall_mshr_hits::total        28958                       # number of overall MSHR hits
system.cpu.dcache.demand_mshr_misses::.switch_cpus.data       122937                       # number of demand (read+write) MSHR misses
system.cpu.dcache.demand_mshr_misses::total       122937                       # number of demand (read+write) MSHR misses
system.cpu.dcache.overall_mshr_misses::.switch_cpus.data       122937                       # number of overall MSHR misses
system.cpu.dcache.overall_mshr_misses::total       122937                       # number of overall MSHR misses
system.cpu.dcache.demand_mshr_miss_latency::.switch_cpus.data   9166839275                       # number of demand (read+write) MSHR miss cycles
system.cpu.dcache.demand_mshr_miss_latency::total   9166839275                       # number of demand (read+write) MSHR miss cycles
system.cpu.dcache.overall_mshr_miss_latency::.switch_cpus.data   9166839275                       # number of overall MSHR miss cycles
system.cpu.dcache.overall_mshr_miss_latency::total   9166839275                       # number of overall MSHR miss cycles
system.cpu.dcache.demand_mshr_miss_rate::.switch_cpus.data     0.025369                       # mshr miss rate for demand accesses
system.cpu.dcache.demand_mshr_miss_rate::total     0.025369                       # mshr miss rate for demand accesses
system.cpu.dcache.overall_mshr_miss_rate::.switch_cpus.data     0.025369                       # mshr miss rate for overall accesses
system.cpu.dcache.overall_mshr_miss_rate::total     0.025369                       # mshr miss rate for overall accesses
system.cpu.dcache.demand_avg_mshr_miss_latency::.switch_cpus.data 74565.340581                       # average overall mshr miss latency
system.cpu.dcache.demand_avg_mshr_miss_latency::total 74565.340581                       # average overall mshr miss latency
system.cpu.dcache.overall_avg_mshr_miss_latency::.switch_cpus.data 74565.340581                       # average overall mshr miss latency
system.cpu.dcache.overall_avg_mshr_miss_latency::total 74565.340581                       # average overall mshr miss latency
system.cpu.dcache.replacements                 122431                       # number of replacements
system.cpu.dcache.csize                      16776096                       # Cache sizes in total
system.cpu.dcache.ReadReq_hits::.cpu.data            2                       # number of ReadReq hits
system.cpu.dcache.ReadReq_hits::.switch_cpus.data      1954742                       # number of ReadReq hits
system.cpu.dcache.ReadReq_hits::total         1954744                       # number of ReadReq hits
system.cpu.dcache.ReadReq_misses::.cpu.data            3                       # number of ReadReq misses
system.cpu.dcache.ReadReq_misses::.switch_cpus.data       151865                       # number of ReadReq misses
system.cpu.dcache.ReadReq_misses::total        151868                       # number of ReadReq misses
system.cpu.dcache.ReadReq_miss_latency::.switch_cpus.data  11065176176                       # number of ReadReq miss cycles
system.cpu.dcache.ReadReq_miss_latency::total  11065176176                       # number of ReadReq miss cycles
system.cpu.dcache.ReadReq_accesses::.cpu.data            5                       # number of ReadReq accesses(hits+misses)
system.cpu.dcache.ReadReq_accesses::.switch_cpus.data      2106607                       # number of ReadReq accesses(hits+misses)
system.cpu.dcache.ReadReq_accesses::total      2106612                       # number of ReadReq accesses(hits+misses)
system.cpu.dcache.ReadReq_miss_rate::.cpu.data     0.600000                       # miss rate for ReadReq accesses
system.cpu.dcache.ReadReq_miss_rate::.switch_cpus.data     0.072090                       # miss rate for ReadReq accesses
system.cpu.dcache.ReadReq_miss_rate::total     0.072091                       # miss rate for ReadReq accesses
system.cpu.dcache.ReadReq_avg_miss_latency::.switch_cpus.data 72861.924578                       # average ReadReq miss latency
system.cpu.dcache.ReadReq_avg_miss_latency::total 72860.485264                       # average ReadReq miss latency
system.cpu.dcache.ReadReq_mshr_hits::.switch_cpus.data        28958                       # number of ReadReq MSHR hits
system.cpu.dcache.ReadReq_mshr_hits::total        28958                       # number of ReadReq MSHR hits
system.cpu.dcache.ReadReq_mshr_misses::.switch_cpus.data       122907                       # number of ReadReq MSHR misses
system.cpu.dcache.ReadReq_mshr_misses::total       122907                       # number of ReadReq MSHR misses
system.cpu.dcache.ReadReq_mshr_miss_latency::.switch_cpus.data   9166519576                       # number of ReadReq MSHR miss cycles
system.cpu.dcache.ReadReq_mshr_miss_latency::total   9166519576                       # number of ReadReq MSHR miss cycles
system.cpu.dcache.ReadReq_mshr_miss_rate::.switch_cpus.data     0.058344                       # mshr miss rate for ReadReq accesses
system.cpu.dcache.ReadReq_mshr_miss_rate::total     0.058343                       # mshr miss rate for ReadReq accesses
system.cpu.dcache.ReadReq_avg_mshr_miss_latency::.switch_cpus.data 74580.939865                       # average ReadReq mshr miss latency
system.cpu.dcache.ReadReq_avg_mshr_miss_latency::total 74580.939865                       # average ReadReq mshr miss latency
system.cpu.dcache.WriteReq_hits::.cpu.data            6                       # number of WriteReq hits
system.cpu.dcache.WriteReq_hits::.switch_cpus.data      2739301                       # number of WriteReq hits
system.cpu.dcache.WriteReq_hits::total        2739307                       # number of WriteReq hits
system.cpu.dcache.WriteReq_misses::.cpu.data            3                       # number of WriteReq misses
system.cpu.dcache.WriteReq_misses::.switch_cpus.data           30                       # number of WriteReq misses
system.cpu.dcache.WriteReq_misses::total           33                       # number of WriteReq misses
system.cpu.dcache.WriteReq_miss_latency::.switch_cpus.data       336379                       # number of WriteReq miss cycles
system.cpu.dcache.WriteReq_miss_latency::total       336379                       # number of WriteReq miss cycles
system.cpu.dcache.WriteReq_accesses::.cpu.data            9                       # number of WriteReq accesses(hits+misses)
system.cpu.dcache.WriteReq_accesses::.switch_cpus.data      2739331                       # number of WriteReq accesses(hits+misses)
system.cpu.dcache.WriteReq_accesses::total      2739340                       # number of WriteReq accesses(hits+misses)
system.cpu.dcache.WriteReq_miss_rate::.cpu.data     0.333333                       # miss rate for WriteReq accesses
system.cpu.dcache.WriteReq_miss_rate::.switch_cpus.data     0.000011                       # miss rate for WriteReq accesses
system.cpu.dcache.WriteReq_miss_rate::total     0.000012                       # miss rate for WriteReq accesses
system.cpu.dcache.WriteReq_avg_miss_latency::.switch_cpus.data 11212.633333                       # average WriteReq miss latency
system.cpu.dcache.WriteReq_avg_miss_latency::total 10193.303030                       # average WriteReq miss latency
system.cpu.dcache.WriteReq_mshr_misses::.switch_cpus.data           30                       # number of WriteReq MSHR misses
system.cpu.dcache.WriteReq_mshr_misses::total           30                       # number of WriteReq MSHR misses
system.cpu.dcache.WriteReq_mshr_miss_latency::.switch_cpus.data       319699                       # number of WriteReq MSHR miss cycles
system.cpu.dcache.WriteReq_mshr_miss_latency::total       319699                       # number of WriteReq MSHR miss cycles
system.cpu.dcache.WriteReq_mshr_miss_rate::.switch_cpus.data     0.000011                       # mshr miss rate for WriteReq accesses
system.cpu.dcache.WriteReq_mshr_miss_rate::total     0.000011                       # mshr miss rate for WriteReq accesses
system.cpu.dcache.WriteReq_avg_mshr_miss_latency::.switch_cpus.data 10656.633333                       # average WriteReq mshr miss latency
system.cpu.dcache.WriteReq_avg_mshr_miss_latency::total 10656.633333                       # average WriteReq mshr miss latency
system.cpu.dcache.tags.pwrStateResidencyTicks::UNDEFINED 9279678819086                       # Cumulative time (in ticks) in various power states
system.cpu.dcache.tags.tagsinuse             0.363410                       # Cycle average of tags in use
system.cpu.dcache.tags.total_refs             4816994                       # Total number of references to valid blocks.
system.cpu.dcache.tags.sampled_refs            122943                       # Sample count of references to valid blocks.
system.cpu.dcache.tags.avg_refs             39.180710                       # Average number of references to valid blocks.
system.cpu.dcache.tags.warmup_cycle      9273080899136                       # Cycle when the warmup percentage was hit.
system.cpu.dcache.tags.occ_blocks::.cpu.data     0.000801                       # Average occupied blocks per requestor
system.cpu.dcache.tags.occ_blocks::.switch_cpus.data     0.362609                       # Average occupied blocks per requestor
system.cpu.dcache.tags.occ_percent::.cpu.data     0.000002                       # Average percentage of cache occupancy
system.cpu.dcache.tags.occ_percent::.switch_cpus.data     0.000708                       # Average percentage of cache occupancy
system.cpu.dcache.tags.occ_percent::total     0.000710                       # Average percentage of cache occupancy
system.cpu.dcache.tags.occ_task_id_blocks::1024          512                       # Occupied blocks per task id
system.cpu.dcache.tags.age_task_id_blocks_1024::0          211                       # Occupied blocks per task id
system.cpu.dcache.tags.age_task_id_blocks_1024::1          254                       # Occupied blocks per task id
system.cpu.dcache.tags.age_task_id_blocks_1024::2           47                       # Occupied blocks per task id
system.cpu.dcache.tags.occ_task_id_percent::1024            1                       # Percentage of cache occupancy per task id
system.cpu.dcache.tags.tag_accesses          38890559                       # Number of tag accesses
system.cpu.dcache.tags.data_accesses         38890559                       # Number of data accesses

---------- End Simulation Statistics   ----------
