
---------- Begin Simulation Statistics ----------
final_tick                               11089031686264                       # Number of ticks from beginning of simulation (restored from checkpoints and never reset)
host_inst_rate                                 135132                       # Simulator instruction rate (inst/s)
host_mem_usage                               16947664                       # Number of bytes of host memory used
host_op_rate                                   253908                       # Simulator op (including micro ops) rate (op/s)
host_seconds                                    74.00                       # Real time elapsed on the host
host_tick_rate                               79424387                       # Simulator tick rate (ticks/s)
sim_freq                                 1000000000000                       # Frequency of simulated ticks
sim_insts                                    10000017                       # Number of instructions simulated
sim_ops                                      18789771                       # Number of ops (including micro ops) simulated
sim_seconds                                  0.005878                       # Number of seconds simulated
sim_ticks                                  5877577264                       # Number of ticks simulated
system.cpu.Branches                                 1                       # Number of branches fetched
system.cpu.committedInsts                          15                       # Number of instructions committed
system.cpu.committedOps                            31                       # Number of ops (including micro ops) committed
system.cpu.dtb.rdAccesses                           6                       # TLB accesses on read requests
system.cpu.dtb.rdMisses                             0                       # TLB misses on read requests
system.cpu.dtb.wrAccesses                           0                       # TLB accesses on write requests
system.cpu.dtb.wrMisses                             0                       # TLB misses on write requests
system.cpu.idle_fraction                            0                       # Percentage of idle cycles
system.cpu.itb.rdAccesses                           0                       # TLB accesses on read requests
system.cpu.itb.rdMisses                             0                       # TLB misses on read requests
system.cpu.itb.wrAccesses                          20                       # TLB accesses on write requests
system.cpu.itb.wrMisses                             0                       # TLB misses on write requests
system.cpu.not_idle_fraction                        1                       # Percentage of non-idle cycles
system.cpu.numCycles                               36                       # number of cpu cycles simulated
system.cpu.numWorkItemsCompleted                    0                       # number of work items this cpu completed
system.cpu.numWorkItemsStarted                      0                       # number of work items this cpu started
system.cpu.num_busy_cycles                         36                       # Number of busy cycles
system.cpu.num_cc_register_reads                    5                       # number of times the CC registers were read
system.cpu.num_cc_register_writes                   4                       # number of times the CC registers were written
system.cpu.num_conditional_control_insts            1                       # number of instructions that are conditional controls
system.cpu.num_fp_alu_accesses                     25                       # Number of float alu accesses
system.cpu.num_fp_insts                            25                       # number of float instructions
system.cpu.num_fp_register_reads                   27                       # number of times the floating registers were read
system.cpu.num_fp_register_writes                  25                       # number of times the floating registers were written
system.cpu.num_func_calls                           0                       # number of times a function call or return occured
system.cpu.num_idle_cycles                          0                       # Number of idle cycles
system.cpu.num_int_alu_accesses                    12                       # Number of integer alu accesses
system.cpu.num_int_insts                           12                       # number of integer instructions
system.cpu.num_int_register_reads                  26                       # number of times the integer registers were read
system.cpu.num_int_register_writes                  5                       # number of times the integer registers were written
system.cpu.num_load_insts                           6                       # Number of load instructions
system.cpu.num_mem_refs                             6                       # number of memory refs
system.cpu.num_store_insts                          0                       # Number of store instructions
system.cpu.num_vec_alu_accesses                     0                       # Number of vector alu accesses
system.cpu.num_vec_insts                            0                       # number of vector instructions
system.cpu.num_vec_register_reads                   0                       # number of times the vector registers were read
system.cpu.num_vec_register_writes                  0                       # number of times the vector registers were written
system.cpu.op_class::No_OpClass                     0      0.00%      0.00% # Class of executed instruction
system.cpu.op_class::IntAlu                         6     19.35%     19.35% # Class of executed instruction
system.cpu.op_class::IntMult                        0      0.00%     19.35% # Class of executed instruction
system.cpu.op_class::IntDiv                         0      0.00%     19.35% # Class of executed instruction
system.cpu.op_class::FloatAdd                       8     25.81%     45.16% # Class of executed instruction
system.cpu.op_class::FloatCmp                       0      0.00%     45.16% # Class of executed instruction
system.cpu.op_class::FloatCvt                       0      0.00%     45.16% # Class of executed instruction
system.cpu.op_class::FloatMult                      0      0.00%     45.16% # Class of executed instruction
system.cpu.op_class::FloatMultAcc                   0      0.00%     45.16% # Class of executed instruction
system.cpu.op_class::FloatDiv                       0      0.00%     45.16% # Class of executed instruction
system.cpu.op_class::FloatMisc                      0      0.00%     45.16% # Class of executed instruction
system.cpu.op_class::FloatSqrt                      0      0.00%     45.16% # Class of executed instruction
system.cpu.op_class::SimdAdd                        0      0.00%     45.16% # Class of executed instruction
system.cpu.op_class::SimdAddAcc                     0      0.00%     45.16% # Class of executed instruction
system.cpu.op_class::SimdAlu                        0      0.00%     45.16% # Class of executed instruction
system.cpu.op_class::SimdCmp                        0      0.00%     45.16% # Class of executed instruction
system.cpu.op_class::SimdCvt                        0      0.00%     45.16% # Class of executed instruction
system.cpu.op_class::SimdMisc                       2      6.45%     51.61% # Class of executed instruction
system.cpu.op_class::SimdMult                       0      0.00%     51.61% # Class of executed instruction
system.cpu.op_class::SimdMultAcc                    0      0.00%     51.61% # Class of executed instruction
system.cpu.op_class::SimdShift                      0      0.00%     51.61% # Class of executed instruction
system.cpu.op_class::SimdShiftAcc                   0      0.00%     51.61% # Class of executed instruction
system.cpu.op_class::SimdDiv                        0      0.00%     51.61% # Class of executed instruction
system.cpu.op_class::SimdSqrt                       0      0.00%     51.61% # Class of executed instruction
system.cpu.op_class::SimdFloatAdd                   3      9.68%     61.29% # Class of executed instruction
system.cpu.op_class::SimdFloatAlu                   0      0.00%     61.29% # Class of executed instruction
system.cpu.op_class::SimdFloatCmp                   0      0.00%     61.29% # Class of executed instruction
system.cpu.op_class::SimdFloatCvt                   4     12.90%     74.19% # Class of executed instruction
system.cpu.op_class::SimdFloatDiv                   0      0.00%     74.19% # Class of executed instruction
system.cpu.op_class::SimdFloatMisc                  0      0.00%     74.19% # Class of executed instruction
system.cpu.op_class::SimdFloatMult                  2      6.45%     80.65% # Class of executed instruction
system.cpu.op_class::SimdFloatMultAcc               0      0.00%     80.65% # Class of executed instruction
system.cpu.op_class::SimdFloatSqrt                  0      0.00%     80.65% # Class of executed instruction
system.cpu.op_class::SimdReduceAdd                  0      0.00%     80.65% # Class of executed instruction
system.cpu.op_class::SimdReduceAlu                  0      0.00%     80.65% # Class of executed instruction
system.cpu.op_class::SimdReduceCmp                  0      0.00%     80.65% # Class of executed instruction
system.cpu.op_class::SimdFloatReduceAdd             0      0.00%     80.65% # Class of executed instruction
system.cpu.op_class::SimdFloatReduceCmp             0      0.00%     80.65% # Class of executed instruction
system.cpu.op_class::SimdAes                        0      0.00%     80.65% # Class of executed instruction
system.cpu.op_class::SimdAesMix                     0      0.00%     80.65% # Class of executed instruction
system.cpu.op_class::SimdSha1Hash                   0      0.00%     80.65% # Class of executed instruction
system.cpu.op_class::SimdSha1Hash2                  0      0.00%     80.65% # Class of executed instruction
system.cpu.op_class::SimdSha256Hash                 0      0.00%     80.65% # Class of executed instruction
system.cpu.op_class::SimdSha256Hash2                0      0.00%     80.65% # Class of executed instruction
system.cpu.op_class::SimdShaSigma2                  0      0.00%     80.65% # Class of executed instruction
system.cpu.op_class::SimdShaSigma3                  0      0.00%     80.65% # Class of executed instruction
system.cpu.op_class::SimdPredAlu                    0      0.00%     80.65% # Class of executed instruction
system.cpu.op_class::MemRead                        0      0.00%     80.65% # Class of executed instruction
system.cpu.op_class::MemWrite                       0      0.00%     80.65% # Class of executed instruction
system.cpu.op_class::FloatMemRead                   6     19.35%    100.00% # Class of executed instruction
system.cpu.op_class::FloatMemWrite                  0      0.00%    100.00% # Class of executed instruction
system.cpu.op_class::IprAccess                      0      0.00%    100.00% # Class of executed instruction
system.cpu.op_class::InstPrefetch                   0      0.00%    100.00% # Class of executed instruction
system.cpu.op_class::total                         31                       # Class of executed instruction
system.cpu.workload.numSyscalls                     0                       # Number of system calls
system.membus.snoop_filter.hit_multi_requests            0                       # Number of requests hitting in the snoop filter with multiple (>1) holders of the requested data.
system.membus.snoop_filter.hit_multi_snoops            0                       # Number of snoops hitting in the snoop filter with multiple (>1) holders of the requested data.
system.membus.snoop_filter.hit_single_requests       128191                       # Number of requests hitting in the snoop filter with a single holder of the requested data.
system.membus.snoop_filter.hit_single_snoops            0                       # Number of snoops hitting in the snoop filter with a single holder of the requested data.
system.membus.snoop_filter.tot_requests        260764                       # Total number of requests made to the snoop filter.
system.membus.snoop_filter.tot_snoops               0                       # Total number of snoops made to the snoop filter.
system.switch_cpus.branchPred.BTBCorrect            0                       # Number of correct BTB predictions (this stat may not work properly.
system.switch_cpus.branchPred.BTBHitPct      0.000000                       # BTB Hit Percentage
system.switch_cpus.branchPred.BTBHits               0                       # Number of BTB hits
system.switch_cpus.branchPred.BTBLookups      1079315                       # Number of BTB lookups
system.switch_cpus.branchPred.RASInCorrect            5                       # Number of incorrect RAS predictions.
system.switch_cpus.branchPred.condIncorrect        45866                       # Number of conditional branches incorrect
system.switch_cpus.branchPred.condPredicted      1130397                       # Number of conditional branches predicted
system.switch_cpus.branchPred.indirectHits       966271                       # Number of indirect target hits.
system.switch_cpus.branchPred.indirectLookups      1079315                       # Number of indirect predictor lookups.
system.switch_cpus.branchPred.indirectMisses       113044                       # Number of indirect misses.
system.switch_cpus.branchPred.lookups         1198953                       # Number of BP lookups
system.switch_cpus.branchPred.usedRAS           37845                       # Number of times the RAS was used to get a target.
system.switch_cpus.branchPredindirectMispredicted         5500                       # Number of mispredicted indirect branches.
system.switch_cpus.cc_regfile_reads           5413210                       # number of cc regfile reads
system.switch_cpus.cc_regfile_writes          3963182                       # number of cc regfile writes
system.switch_cpus.commit.amos                      0                       # Number of atomic instructions committed
system.switch_cpus.commit.branchMispredicts        45931                       # The number of times a branch was mispredicted
system.switch_cpus.commit.branches             966825                       # Number of branches committed
system.switch_cpus.commit.bw_lim_events       1958143                       # number cycles where commit BW limit reached
system.switch_cpus.commit.commitSquashedInsts      1931499                       # The number of squashed insts skipped by commit
system.switch_cpus.commit.committedInsts     10000002                       # Number of instructions committed
system.switch_cpus.commit.committedOps       18789740                       # Number of ops (including micro ops) committed
system.switch_cpus.commit.committed_per_cycle::samples     20840952                       # Number of insts commited each cycle
system.switch_cpus.commit.committed_per_cycle::mean     0.901578                       # Number of insts commited each cycle
system.switch_cpus.commit.committed_per_cycle::stdev     2.405468                       # Number of insts commited each cycle
system.switch_cpus.commit.committed_per_cycle::underflows            0      0.00%      0.00% # Number of insts commited each cycle
system.switch_cpus.commit.committed_per_cycle::0     17707701     84.97%     84.97% # Number of insts commited each cycle
system.switch_cpus.commit.committed_per_cycle::1       489259      2.35%     87.31% # Number of insts commited each cycle
system.switch_cpus.commit.committed_per_cycle::2       174145      0.84%     88.15% # Number of insts commited each cycle
system.switch_cpus.commit.committed_per_cycle::3       143155      0.69%     88.84% # Number of insts commited each cycle
system.switch_cpus.commit.committed_per_cycle::4       142333      0.68%     89.52% # Number of insts commited each cycle
system.switch_cpus.commit.committed_per_cycle::5       106525      0.51%     90.03% # Number of insts commited each cycle
system.switch_cpus.commit.committed_per_cycle::6        82212      0.39%     90.42% # Number of insts commited each cycle
system.switch_cpus.commit.committed_per_cycle::7        37479      0.18%     90.60% # Number of insts commited each cycle
system.switch_cpus.commit.committed_per_cycle::8      1958143      9.40%    100.00% # Number of insts commited each cycle
system.switch_cpus.commit.committed_per_cycle::overflows            0      0.00%    100.00% # Number of insts commited each cycle
system.switch_cpus.commit.committed_per_cycle::min_value            0                       # Number of insts commited each cycle
system.switch_cpus.commit.committed_per_cycle::max_value            8                       # Number of insts commited each cycle
system.switch_cpus.commit.committed_per_cycle::total     20840952                       # Number of insts commited each cycle
system.switch_cpus.commit.fp_insts           11967945                       # Number of committed floating point instructions.
system.switch_cpus.commit.function_calls        20831                       # Number of function calls committed.
system.switch_cpus.commit.int_insts           8861198                       # Number of committed integer instructions.
system.switch_cpus.commit.loads               2614082                       # Number of loads committed
system.switch_cpus.commit.membars                   0                       # Number of memory barriers committed
system.switch_cpus.commit.mispred_commit_branch        44145                       # mein_hi_hun
system.switch_cpus.commit.op_class_0::No_OpClass        18058      0.10%      0.10% # Class of committed instruction
system.switch_cpus.commit.op_class_0::IntAlu      6318695     33.63%     33.72% # Class of committed instruction
system.switch_cpus.commit.op_class_0::IntMult            7      0.00%     33.72% # Class of committed instruction
system.switch_cpus.commit.op_class_0::IntDiv           35      0.00%     33.72% # Class of committed instruction
system.switch_cpus.commit.op_class_0::FloatAdd      2606447     13.87%     47.60% # Class of committed instruction
system.switch_cpus.commit.op_class_0::FloatCmp            0      0.00%     47.60% # Class of committed instruction
system.switch_cpus.commit.op_class_0::FloatCvt            0      0.00%     47.60% # Class of committed instruction
system.switch_cpus.commit.op_class_0::FloatMult            0      0.00%     47.60% # Class of committed instruction
system.switch_cpus.commit.op_class_0::FloatMultAcc            0      0.00%     47.60% # Class of committed instruction
system.switch_cpus.commit.op_class_0::FloatDiv            0      0.00%     47.60% # Class of committed instruction
system.switch_cpus.commit.op_class_0::FloatMisc            0      0.00%     47.60% # Class of committed instruction
system.switch_cpus.commit.op_class_0::FloatSqrt            0      0.00%     47.60% # Class of committed instruction
system.switch_cpus.commit.op_class_0::SimdAdd            0      0.00%     47.60% # Class of committed instruction
system.switch_cpus.commit.op_class_0::SimdAddAcc            0      0.00%     47.60% # Class of committed instruction
system.switch_cpus.commit.op_class_0::SimdAlu            0      0.00%     47.60% # Class of committed instruction
system.switch_cpus.commit.op_class_0::SimdCmp            0      0.00%     47.60% # Class of committed instruction
system.switch_cpus.commit.op_class_0::SimdCvt            0      0.00%     47.60% # Class of committed instruction
system.switch_cpus.commit.op_class_0::SimdMisc      1408884      7.50%     55.09% # Class of committed instruction
system.switch_cpus.commit.op_class_0::SimdMult            0      0.00%     55.09% # Class of committed instruction
system.switch_cpus.commit.op_class_0::SimdMultAcc            0      0.00%     55.09% # Class of committed instruction
system.switch_cpus.commit.op_class_0::SimdShift            0      0.00%     55.09% # Class of committed instruction
system.switch_cpus.commit.op_class_0::SimdShiftAcc            0      0.00%     55.09% # Class of committed instruction
system.switch_cpus.commit.op_class_0::SimdDiv            0      0.00%     55.09% # Class of committed instruction
system.switch_cpus.commit.op_class_0::SimdSqrt            0      0.00%     55.09% # Class of committed instruction
system.switch_cpus.commit.op_class_0::SimdFloatAdd      1382940      7.36%     62.45% # Class of committed instruction
system.switch_cpus.commit.op_class_0::SimdFloatAlu            0      0.00%     62.45% # Class of committed instruction
system.switch_cpus.commit.op_class_0::SimdFloatCmp        25921      0.14%     62.59% # Class of committed instruction
system.switch_cpus.commit.op_class_0::SimdFloatCvt      2843647     15.13%     77.73% # Class of committed instruction
system.switch_cpus.commit.op_class_0::SimdFloatDiv            0      0.00%     77.73% # Class of committed instruction
system.switch_cpus.commit.op_class_0::SimdFloatMisc            0      0.00%     77.73% # Class of committed instruction
system.switch_cpus.commit.op_class_0::SimdFloatMult      1408862      7.50%     85.22% # Class of committed instruction
system.switch_cpus.commit.op_class_0::SimdFloatMultAcc            0      0.00%     85.22% # Class of committed instruction
system.switch_cpus.commit.op_class_0::SimdFloatSqrt            0      0.00%     85.22% # Class of committed instruction
system.switch_cpus.commit.op_class_0::SimdReduceAdd            0      0.00%     85.22% # Class of committed instruction
system.switch_cpus.commit.op_class_0::SimdReduceAlu            0      0.00%     85.22% # Class of committed instruction
system.switch_cpus.commit.op_class_0::SimdReduceCmp            0      0.00%     85.22% # Class of committed instruction
system.switch_cpus.commit.op_class_0::SimdFloatReduceAdd            0      0.00%     85.22% # Class of committed instruction
system.switch_cpus.commit.op_class_0::SimdFloatReduceCmp            0      0.00%     85.22% # Class of committed instruction
system.switch_cpus.commit.op_class_0::SimdAes            0      0.00%     85.22% # Class of committed instruction
system.switch_cpus.commit.op_class_0::SimdAesMix            0      0.00%     85.22% # Class of committed instruction
system.switch_cpus.commit.op_class_0::SimdSha1Hash            0      0.00%     85.22% # Class of committed instruction
system.switch_cpus.commit.op_class_0::SimdSha1Hash2            0      0.00%     85.22% # Class of committed instruction
system.switch_cpus.commit.op_class_0::SimdSha256Hash            0      0.00%     85.22% # Class of committed instruction
system.switch_cpus.commit.op_class_0::SimdSha256Hash2            0      0.00%     85.22% # Class of committed instruction
system.switch_cpus.commit.op_class_0::SimdShaSigma2            0      0.00%     85.22% # Class of committed instruction
system.switch_cpus.commit.op_class_0::SimdShaSigma3            0      0.00%     85.22% # Class of committed instruction
system.switch_cpus.commit.op_class_0::SimdPredAlu            0      0.00%     85.22% # Class of committed instruction
system.switch_cpus.commit.op_class_0::MemRead       598073      3.18%     88.41% # Class of committed instruction
system.switch_cpus.commit.op_class_0::MemWrite       139950      0.74%     89.15% # Class of committed instruction
system.switch_cpus.commit.op_class_0::FloatMemRead      2016009     10.73%     99.88% # Class of committed instruction
system.switch_cpus.commit.op_class_0::FloatMemWrite        22212      0.12%    100.00% # Class of committed instruction
system.switch_cpus.commit.op_class_0::IprAccess            0      0.00%    100.00% # Class of committed instruction
system.switch_cpus.commit.op_class_0::InstPrefetch            0      0.00%    100.00% # Class of committed instruction
system.switch_cpus.commit.op_class_0::total     18789740                       # Class of committed instruction
system.switch_cpus.commit.refs                2776244                       # Number of memory references committed
system.switch_cpus.commit.swp_count                 0                       # Number of s/w prefetches committed
system.switch_cpus.commit.vec_insts                 0                       # Number of committed Vector instructions.
system.switch_cpus.committedInsts            10000002                       # Number of Instructions Simulated
system.switch_cpus.committedOps              18789740                       # Number of Ops (including micro ops) Simulated
system.switch_cpus.cpi                       2.114232                       # CPI: Cycles Per Instruction
system.switch_cpus.cpi_total                 2.114232                       # CPI: Total CPI of All Threads
system.switch_cpus.decode.BlockedCycles      17377354                       # Number of cycles decode is blocked
system.switch_cpus.decode.DecodedInsts       21439133                       # Number of instructions handled by decode
system.switch_cpus.decode.IdleCycles           824856                       # Number of cycles decode is idle
system.switch_cpus.decode.RunCycles           2175597                       # Number of cycles decode is running
system.switch_cpus.decode.SquashCycles          46046                       # Number of cycles decode is squashing
system.switch_cpus.decode.UnblockCycles        682214                       # Number of cycles decode is unblocking
system.switch_cpus.dtb.rdAccesses             2921242                       # TLB accesses on read requests
system.switch_cpus.dtb.rdMisses                  8300                       # TLB misses on read requests
system.switch_cpus.dtb.wrAccesses              183786                       # TLB accesses on write requests
system.switch_cpus.dtb.wrMisses                   176                       # TLB misses on write requests
system.switch_cpus.fetch.Branches             1198953                       # Number of branches that fetch encountered
system.switch_cpus.fetch.CacheLines            760037                       # Number of cache lines fetched
system.switch_cpus.fetch.Cycles              20261985                       # Number of cycles fetch has run and was not squashing or blocked
system.switch_cpus.fetch.IcacheSquashes          4612                       # Number of outstanding Icache misses that were squashed
system.switch_cpus.fetch.Insts               11917089                       # Number of instructions fetch has processed
system.switch_cpus.fetch.MiscStallCycles           62                       # Number of cycles fetch has spent waiting on interrupts, or bad addresses, or out of MSHRs
system.switch_cpus.fetch.PendingTrapStallCycles         1499                       # Number of stall cycles due to pending traps
system.switch_cpus.fetch.SquashCycles           92092                       # Number of cycles fetch has spent squashing
system.switch_cpus.fetch.branchRate          0.056709                       # Number of branch fetches per cycle
system.switch_cpus.fetch.icacheStallCycles       796478                       # Number of cycles fetch is stalled on an Icache miss
system.switch_cpus.fetch.predictedBranches      1004116                       # Number of branches that fetch has predicted taken
system.switch_cpus.fetch.rate                0.563660                       # Number of inst fetches per cycle
system.switch_cpus.fetch.rateDist::samples     21106070                       # Number of instructions fetched each cycle (Total)
system.switch_cpus.fetch.rateDist::mean      1.059224                       # Number of instructions fetched each cycle (Total)
system.switch_cpus.fetch.rateDist::stdev     2.567874                       # Number of instructions fetched each cycle (Total)
system.switch_cpus.fetch.rateDist::underflows            0      0.00%      0.00% # Number of instructions fetched each cycle (Total)
system.switch_cpus.fetch.rateDist::0         17744955     84.08%     84.08% # Number of instructions fetched each cycle (Total)
system.switch_cpus.fetch.rateDist::1           108732      0.52%     84.59% # Number of instructions fetched each cycle (Total)
system.switch_cpus.fetch.rateDist::2           103622      0.49%     85.08% # Number of instructions fetched each cycle (Total)
system.switch_cpus.fetch.rateDist::3           228745      1.08%     86.17% # Number of instructions fetched each cycle (Total)
system.switch_cpus.fetch.rateDist::4           169861      0.80%     86.97% # Number of instructions fetched each cycle (Total)
system.switch_cpus.fetch.rateDist::5           201830      0.96%     87.93% # Number of instructions fetched each cycle (Total)
system.switch_cpus.fetch.rateDist::6           117451      0.56%     88.48% # Number of instructions fetched each cycle (Total)
system.switch_cpus.fetch.rateDist::7           486439      2.30%     90.79% # Number of instructions fetched each cycle (Total)
system.switch_cpus.fetch.rateDist::8          1944435      9.21%    100.00% # Number of instructions fetched each cycle (Total)
system.switch_cpus.fetch.rateDist::overflows            0      0.00%    100.00% # Number of instructions fetched each cycle (Total)
system.switch_cpus.fetch.rateDist::min_value            0                       # Number of instructions fetched each cycle (Total)
system.switch_cpus.fetch.rateDist::max_value            8                       # Number of instructions fetched each cycle (Total)
system.switch_cpus.fetch.rateDist::total     21106070                       # Number of instructions fetched each cycle (Total)
system.switch_cpus.fp_regfile_reads          17778302                       # number of floating regfile reads
system.switch_cpus.fp_regfile_writes         12298838                       # number of floating regfile writes
system.switch_cpus.idleCycles                   36258                       # Total number of cycles that the CPU has spent unscheduled due to idling
system.switch_cpus.iew.Average_branch_resolution_cycles            0                       # sirf mispred wala
system.switch_cpus.iew.branchMispredicts        53455                       # Number of branch mispredicts detected at execute
system.switch_cpus.iew.exec_branches          1038729                       # Number of branches executed
system.switch_cpus.iew.exec_nop                     0                       # number of nop insts executed
system.switch_cpus.iew.exec_rate             0.952854                       # Inst execution rate
system.switch_cpus.iew.exec_refs              3178942                       # number of memory reference insts executed
system.switch_cpus.iew.exec_stores             183779                       # Number of stores executed
system.switch_cpus.iew.exec_swp                     0                       # number of swp insts executed
system.switch_cpus.iew.global_million_exceeded_g            0                       # multiple with  million wala
system.switch_cpus.iew.global_million_timer_g 1150629.212000                       # less than million wala
system.switch_cpus.iew.iewBlockCycles        13505091                       # Number of cycles IEW is blocking
system.switch_cpus.iew.iewDispLoadInsts       2989093                       # Number of dispatched load instructions
system.switch_cpus.iew.iewDispNonSpecInsts           20                       # Number of dispatched non-speculative instructions
system.switch_cpus.iew.iewDispSquashedInsts        34536                       # Number of squashed instructions skipped by dispatch
system.switch_cpus.iew.iewDispStoreInsts       207225                       # Number of dispatched store instructions
system.switch_cpus.iew.iewDispatchedInsts     20721252                       # Number of instructions dispatched to IQ
system.switch_cpus.iew.iewExecLoadInsts       2995163                       # Number of load instructions executed
system.switch_cpus.iew.iewExecSquashedInsts       127774                       # Number of squashed instructions skipped in execute
system.switch_cpus.iew.iewExecutedInsts      20145557                       # Number of executed instructions
system.switch_cpus.iew.iewIQFullEvents          73605                       # Number of times the IQ has become full, causing a stall
system.switch_cpus.iew.iewIdleCycles                0                       # Number of cycles IEW is idle
system.switch_cpus.iew.iewLSQFullEvents        264362                       # Number of times the LSQ has become full, causing a stall
system.switch_cpus.iew.iewSquashCycles          46046                       # Number of cycles IEW is squashing
system.switch_cpus.iew.iewUnblockCycles        388944                       # Number of cycles IEW is unblocking
system.switch_cpus.iew.lsq.thread0.blockedLoads            0                       # Number of blocked loads due to partial load-store forwarding
system.switch_cpus.iew.lsq.thread0.cacheBlocked        20832                       # Number of times an access to memory failed due to the cache being blocked
system.switch_cpus.iew.lsq.thread0.forwLoads        20682                       # Number of loads that had data forwarded from stores
system.switch_cpus.iew.lsq.thread0.ignoredResponses          160                       # Number of memory responses ignored because the instruction is squashed
system.switch_cpus.iew.lsq.thread0.invAddrLoads            0                       # Number of loads ignored due to an invalid address
system.switch_cpus.iew.lsq.thread0.invAddrSwpfs            0                       # Number of software prefetches ignored due to an invalid address
system.switch_cpus.iew.lsq.thread0.memOrderViolation          125                       # Number of memory ordering violations
system.switch_cpus.iew.lsq.thread0.night5          811                       # Number of loads that were rescheduled
system.switch_cpus.iew.lsq.thread0.rescheduledLoads           18                       # Number of loads that were rescheduled
system.switch_cpus.iew.lsq.thread0.squashedLoads       375000                       # Number of loads squashed
system.switch_cpus.iew.lsq.thread0.squashedStores        45063                       # Number of stores squashed
system.switch_cpus.iew.memOrderViolationEvents          125                       # Number of memory order violations
system.switch_cpus.iew.predictedNotTakenIncorrect        18225                       # Number of branches that were predicted not taken incorrectly
system.switch_cpus.iew.predictedTakenIncorrect        35230                       # Number of branches that were predicted taken incorrectly
system.switch_cpus.iew.td                           0                       # Number of td executed instructions
system.switch_cpus.iew.wb_consumers          26032861                       # num instructions consuming a value
system.switch_cpus.iew.wb_count              19935161                       # cumulative count of insts written-back
system.switch_cpus.iew.wb_fanout             0.550233                       # average fanout of values written-back
system.switch_cpus.iew.wb_producers          14324133                       # num instructions producing a value
system.switch_cpus.iew.wb_rate               0.942903                       # insts written-back per cycle
system.switch_cpus.iew.wb_sent               19968270                       # cumulative count of insts sent to commit
system.switch_cpus.int_regfile_reads         13862546                       # number of integer regfile reads
system.switch_cpus.int_regfile_writes         6412703                       # number of integer regfile writes
system.switch_cpus.ipc                       0.472985                       # IPC: Instructions Per Cycle
system.switch_cpus.ipc_total                 0.472985                       # IPC: Total IPC of All Threads
system.switch_cpus.iq.FU_type_0::No_OpClass        27932      0.14%      0.14% # Type of FU issued
system.switch_cpus.iq.FU_type_0::IntAlu       6994240     34.50%     34.64% # Type of FU issued
system.switch_cpus.iq.FU_type_0::IntMult           13      0.00%     34.64% # Type of FU issued
system.switch_cpus.iq.FU_type_0::IntDiv            35      0.00%     34.64% # Type of FU issued
system.switch_cpus.iq.FU_type_0::FloatAdd      2825205     13.94%     48.57% # Type of FU issued
system.switch_cpus.iq.FU_type_0::FloatCmp            0      0.00%     48.57% # Type of FU issued
system.switch_cpus.iq.FU_type_0::FloatCvt            0      0.00%     48.57% # Type of FU issued
system.switch_cpus.iq.FU_type_0::FloatMult            0      0.00%     48.57% # Type of FU issued
system.switch_cpus.iq.FU_type_0::FloatMultAcc            0      0.00%     48.57% # Type of FU issued
system.switch_cpus.iq.FU_type_0::FloatDiv            0      0.00%     48.57% # Type of FU issued
system.switch_cpus.iq.FU_type_0::FloatMisc            0      0.00%     48.57% # Type of FU issued
system.switch_cpus.iq.FU_type_0::FloatSqrt            0      0.00%     48.57% # Type of FU issued
system.switch_cpus.iq.FU_type_0::SimdAdd            0      0.00%     48.57% # Type of FU issued
system.switch_cpus.iq.FU_type_0::SimdAddAcc            0      0.00%     48.57% # Type of FU issued
system.switch_cpus.iq.FU_type_0::SimdAlu            4      0.00%     48.57% # Type of FU issued
system.switch_cpus.iq.FU_type_0::SimdCmp            0      0.00%     48.57% # Type of FU issued
system.switch_cpus.iq.FU_type_0::SimdCvt            0      0.00%     48.57% # Type of FU issued
system.switch_cpus.iq.FU_type_0::SimdMisc      1435252      7.08%     55.65% # Type of FU issued
system.switch_cpus.iq.FU_type_0::SimdMult            0      0.00%     55.65% # Type of FU issued
system.switch_cpus.iq.FU_type_0::SimdMultAcc            0      0.00%     55.65% # Type of FU issued
system.switch_cpus.iq.FU_type_0::SimdShift            0      0.00%     55.65% # Type of FU issued
system.switch_cpus.iq.FU_type_0::SimdShiftAcc            0      0.00%     55.65% # Type of FU issued
system.switch_cpus.iq.FU_type_0::SimdDiv            0      0.00%     55.65% # Type of FU issued
system.switch_cpus.iq.FU_type_0::SimdSqrt            0      0.00%     55.65% # Type of FU issued
system.switch_cpus.iq.FU_type_0::SimdFloatAdd      1407433      6.94%     62.60% # Type of FU issued
system.switch_cpus.iq.FU_type_0::SimdFloatAlu            0      0.00%     62.60% # Type of FU issued
system.switch_cpus.iq.FU_type_0::SimdFloatCmp        25924      0.13%     62.72% # Type of FU issued
system.switch_cpus.iq.FU_type_0::SimdFloatCvt      2902037     14.31%     77.04% # Type of FU issued
system.switch_cpus.iq.FU_type_0::SimdFloatDiv            0      0.00%     77.04% # Type of FU issued
system.switch_cpus.iq.FU_type_0::SimdFloatMisc            0      0.00%     77.04% # Type of FU issued
system.switch_cpus.iq.FU_type_0::SimdFloatMult      1433040      7.07%     84.11% # Type of FU issued
system.switch_cpus.iq.FU_type_0::SimdFloatMultAcc            0      0.00%     84.11% # Type of FU issued
system.switch_cpus.iq.FU_type_0::SimdFloatSqrt            0      0.00%     84.11% # Type of FU issued
system.switch_cpus.iq.FU_type_0::SimdReduceAdd            0      0.00%     84.11% # Type of FU issued
system.switch_cpus.iq.FU_type_0::SimdReduceAlu            0      0.00%     84.11% # Type of FU issued
system.switch_cpus.iq.FU_type_0::SimdReduceCmp            0      0.00%     84.11% # Type of FU issued
system.switch_cpus.iq.FU_type_0::SimdFloatReduceAdd            0      0.00%     84.11% # Type of FU issued
system.switch_cpus.iq.FU_type_0::SimdFloatReduceCmp            0      0.00%     84.11% # Type of FU issued
system.switch_cpus.iq.FU_type_0::SimdAes            0      0.00%     84.11% # Type of FU issued
system.switch_cpus.iq.FU_type_0::SimdAesMix            0      0.00%     84.11% # Type of FU issued
system.switch_cpus.iq.FU_type_0::SimdSha1Hash            0      0.00%     84.11% # Type of FU issued
system.switch_cpus.iq.FU_type_0::SimdSha1Hash2            0      0.00%     84.11% # Type of FU issued
system.switch_cpus.iq.FU_type_0::SimdSha256Hash            0      0.00%     84.11% # Type of FU issued
system.switch_cpus.iq.FU_type_0::SimdSha256Hash2            0      0.00%     84.11% # Type of FU issued
system.switch_cpus.iq.FU_type_0::SimdShaSigma2            0      0.00%     84.11% # Type of FU issued
system.switch_cpus.iq.FU_type_0::SimdShaSigma3            0      0.00%     84.11% # Type of FU issued
system.switch_cpus.iq.FU_type_0::SimdPredAlu            0      0.00%     84.11% # Type of FU issued
system.switch_cpus.iq.FU_type_0::MemRead       882814      4.35%     88.46% # Type of FU issued
system.switch_cpus.iq.FU_type_0::MemWrite       164544      0.81%     89.27% # Type of FU issued
system.switch_cpus.iq.FU_type_0::FloatMemRead      2151242     10.61%     99.88% # Type of FU issued
system.switch_cpus.iq.FU_type_0::FloatMemWrite        23625      0.12%    100.00% # Type of FU issued
system.switch_cpus.iq.FU_type_0::IprAccess            0      0.00%    100.00% # Type of FU issued
system.switch_cpus.iq.FU_type_0::InstPrefetch            0      0.00%    100.00% # Type of FU issued
system.switch_cpus.iq.FU_type_0::total       20273340                       # Type of FU issued
system.switch_cpus.iq.fp_alu_accesses        13106051                       # Number of floating point alu accesses
system.switch_cpus.iq.fp_inst_queue_reads     25570410                       # Number of floating instruction queue reads
system.switch_cpus.iq.fp_inst_queue_wakeup_accesses     12330403                       # Number of floating instruction queue wakeup accesses
system.switch_cpus.iq.fp_inst_queue_writes     13440215                       # Number of floating instruction queue writes
system.switch_cpus.iq.fu_busy_cnt              701302                       # FU busy when requested
system.switch_cpus.iq.fu_busy_rate           0.034592                       # FU busy rate (busy events/executed inst)
system.switch_cpus.iq.fu_full::No_OpClass            0      0.00%      0.00% # attempts to use FU when none available
system.switch_cpus.iq.fu_full::IntAlu           27632      3.94%      3.94% # attempts to use FU when none available
system.switch_cpus.iq.fu_full::IntMult              0      0.00%      3.94% # attempts to use FU when none available
system.switch_cpus.iq.fu_full::IntDiv               0      0.00%      3.94% # attempts to use FU when none available
system.switch_cpus.iq.fu_full::FloatAdd             0      0.00%      3.94% # attempts to use FU when none available
system.switch_cpus.iq.fu_full::FloatCmp             0      0.00%      3.94% # attempts to use FU when none available
system.switch_cpus.iq.fu_full::FloatCvt             0      0.00%      3.94% # attempts to use FU when none available
system.switch_cpus.iq.fu_full::FloatMult            0      0.00%      3.94% # attempts to use FU when none available
system.switch_cpus.iq.fu_full::FloatMultAcc            0      0.00%      3.94% # attempts to use FU when none available
system.switch_cpus.iq.fu_full::FloatDiv             0      0.00%      3.94% # attempts to use FU when none available
system.switch_cpus.iq.fu_full::FloatMisc            0      0.00%      3.94% # attempts to use FU when none available
system.switch_cpus.iq.fu_full::FloatSqrt            0      0.00%      3.94% # attempts to use FU when none available
system.switch_cpus.iq.fu_full::SimdAdd              0      0.00%      3.94% # attempts to use FU when none available
system.switch_cpus.iq.fu_full::SimdAddAcc            0      0.00%      3.94% # attempts to use FU when none available
system.switch_cpus.iq.fu_full::SimdAlu              0      0.00%      3.94% # attempts to use FU when none available
system.switch_cpus.iq.fu_full::SimdCmp              0      0.00%      3.94% # attempts to use FU when none available
system.switch_cpus.iq.fu_full::SimdCvt              0      0.00%      3.94% # attempts to use FU when none available
system.switch_cpus.iq.fu_full::SimdMisc         89182     12.72%     16.66% # attempts to use FU when none available
system.switch_cpus.iq.fu_full::SimdMult             0      0.00%     16.66% # attempts to use FU when none available
system.switch_cpus.iq.fu_full::SimdMultAcc            0      0.00%     16.66% # attempts to use FU when none available
system.switch_cpus.iq.fu_full::SimdShift            0      0.00%     16.66% # attempts to use FU when none available
system.switch_cpus.iq.fu_full::SimdShiftAcc            0      0.00%     16.66% # attempts to use FU when none available
system.switch_cpus.iq.fu_full::SimdDiv              0      0.00%     16.66% # attempts to use FU when none available
system.switch_cpus.iq.fu_full::SimdSqrt             0      0.00%     16.66% # attempts to use FU when none available
system.switch_cpus.iq.fu_full::SimdFloatAdd       191596     27.32%     43.98% # attempts to use FU when none available
system.switch_cpus.iq.fu_full::SimdFloatAlu            0      0.00%     43.98% # attempts to use FU when none available
system.switch_cpus.iq.fu_full::SimdFloatCmp            0      0.00%     43.98% # attempts to use FU when none available
system.switch_cpus.iq.fu_full::SimdFloatCvt       355395     50.68%     94.65% # attempts to use FU when none available
system.switch_cpus.iq.fu_full::SimdFloatDiv            0      0.00%     94.65% # attempts to use FU when none available
system.switch_cpus.iq.fu_full::SimdFloatMisc            0      0.00%     94.65% # attempts to use FU when none available
system.switch_cpus.iq.fu_full::SimdFloatMult         3810      0.54%     95.20% # attempts to use FU when none available
system.switch_cpus.iq.fu_full::SimdFloatMultAcc            0      0.00%     95.20% # attempts to use FU when none available
system.switch_cpus.iq.fu_full::SimdFloatSqrt            0      0.00%     95.20% # attempts to use FU when none available
system.switch_cpus.iq.fu_full::SimdReduceAdd            0      0.00%     95.20% # attempts to use FU when none available
system.switch_cpus.iq.fu_full::SimdReduceAlu            0      0.00%     95.20% # attempts to use FU when none available
system.switch_cpus.iq.fu_full::SimdReduceCmp            0      0.00%     95.20% # attempts to use FU when none available
system.switch_cpus.iq.fu_full::SimdFloatReduceAdd            0      0.00%     95.20% # attempts to use FU when none available
system.switch_cpus.iq.fu_full::SimdFloatReduceCmp            0      0.00%     95.20% # attempts to use FU when none available
system.switch_cpus.iq.fu_full::SimdAes              0      0.00%     95.20% # attempts to use FU when none available
system.switch_cpus.iq.fu_full::SimdAesMix            0      0.00%     95.20% # attempts to use FU when none available
system.switch_cpus.iq.fu_full::SimdSha1Hash            0      0.00%     95.20% # attempts to use FU when none available
system.switch_cpus.iq.fu_full::SimdSha1Hash2            0      0.00%     95.20% # attempts to use FU when none available
system.switch_cpus.iq.fu_full::SimdSha256Hash            0      0.00%     95.20% # attempts to use FU when none available
system.switch_cpus.iq.fu_full::SimdSha256Hash2            0      0.00%     95.20% # attempts to use FU when none available
system.switch_cpus.iq.fu_full::SimdShaSigma2            0      0.00%     95.20% # attempts to use FU when none available
system.switch_cpus.iq.fu_full::SimdShaSigma3            0      0.00%     95.20% # attempts to use FU when none available
system.switch_cpus.iq.fu_full::SimdPredAlu            0      0.00%     95.20% # attempts to use FU when none available
system.switch_cpus.iq.fu_full::MemRead          25401      3.62%     98.82% # attempts to use FU when none available
system.switch_cpus.iq.fu_full::MemWrite           662      0.09%     98.91% # attempts to use FU when none available
system.switch_cpus.iq.fu_full::FloatMemRead         7498      1.07%     99.98% # attempts to use FU when none available
system.switch_cpus.iq.fu_full::FloatMemWrite          126      0.02%    100.00% # attempts to use FU when none available
system.switch_cpus.iq.fu_full::IprAccess            0      0.00%    100.00% # attempts to use FU when none available
system.switch_cpus.iq.fu_full::InstPrefetch            0      0.00%    100.00% # attempts to use FU when none available
system.switch_cpus.iq.int_alu_accesses        7840659                       # Number of integer alu accesses
system.switch_cpus.iq.int_inst_queue_reads     36800456                       # Number of integer instruction queue reads
system.switch_cpus.iq.int_inst_queue_wakeup_accesses      7604758                       # Number of integer instruction queue wakeup accesses
system.switch_cpus.iq.int_inst_queue_writes      9212584                       # Number of integer instruction queue writes
system.switch_cpus.iq.iqInstsAdded           20721192                       # Number of instructions added to the IQ (excludes non-spec)
system.switch_cpus.iq.iqInstsIssued          20273340                       # Number of instructions issued
system.switch_cpus.iq.iqNonSpecInstsAdded           60                       # Number of non-speculative instructions added to the IQ
system.switch_cpus.iq.iqSquashedInstsExamined      1931422                       # Number of squashed instructions iterated over during squash; mainly for profiling
system.switch_cpus.iq.iqSquashedInstsIssued        16823                       # Number of squashed instructions issued
system.switch_cpus.iq.iqSquashedNonSpecRemoved           60                       # Number of squashed non-spec instructions that were removed
system.switch_cpus.iq.iqSquashedOperandsExamined      2255013                       # Number of squashed operands that are examined and possibly removed from graph
system.switch_cpus.iq.issued_per_cycle::samples     21106070                       # Number of insts issued each cycle
system.switch_cpus.iq.issued_per_cycle::mean     0.960545                       # Number of insts issued each cycle
system.switch_cpus.iq.issued_per_cycle::stdev     2.100014                       # Number of insts issued each cycle
system.switch_cpus.iq.issued_per_cycle::underflows            0      0.00%      0.00% # Number of insts issued each cycle
system.switch_cpus.iq.issued_per_cycle::0     16122311     76.39%     76.39% # Number of insts issued each cycle
system.switch_cpus.iq.issued_per_cycle::1       994999      4.71%     81.10% # Number of insts issued each cycle
system.switch_cpus.iq.issued_per_cycle::2       754546      3.58%     84.68% # Number of insts issued each cycle
system.switch_cpus.iq.issued_per_cycle::3       550768      2.61%     87.29% # Number of insts issued each cycle
system.switch_cpus.iq.issued_per_cycle::4       733824      3.48%     90.76% # Number of insts issued each cycle
system.switch_cpus.iq.issued_per_cycle::5       413052      1.96%     92.72% # Number of insts issued each cycle
system.switch_cpus.iq.issued_per_cycle::6       408482      1.94%     94.66% # Number of insts issued each cycle
system.switch_cpus.iq.issued_per_cycle::7       359207      1.70%     96.36% # Number of insts issued each cycle
system.switch_cpus.iq.issued_per_cycle::8       768881      3.64%    100.00% # Number of insts issued each cycle
system.switch_cpus.iq.issued_per_cycle::overflows            0      0.00%    100.00% # Number of insts issued each cycle
system.switch_cpus.iq.issued_per_cycle::min_value            0                       # Number of insts issued each cycle
system.switch_cpus.iq.issued_per_cycle::max_value            8                       # Number of insts issued each cycle
system.switch_cpus.iq.issued_per_cycle::total     21106070                       # Number of insts issued each cycle
system.switch_cpus.iq.rate                   0.958898                       # Inst issue rate
system.switch_cpus.iq.vec_alu_accesses              0                       # Number of vector alu accesses
system.switch_cpus.iq.vec_inst_queue_reads            0                       # Number of vector instruction queue reads
system.switch_cpus.iq.vec_inst_queue_wakeup_accesses            0                       # Number of vector instruction queue wakeup accesses
system.switch_cpus.iq.vec_inst_queue_writes            0                       # Number of vector instruction queue writes
system.switch_cpus.itb.rdAccesses                   0                       # TLB accesses on read requests
system.switch_cpus.itb.rdMisses                     0                       # TLB misses on read requests
system.switch_cpus.itb.wrAccesses              760284                       # TLB accesses on write requests
system.switch_cpus.itb.wrMisses                   275                       # TLB misses on write requests
system.switch_cpus.memDep0.conflictingLoads        11815                       # Number of conflicting loads.
system.switch_cpus.memDep0.conflictingStores         3254                       # Number of conflicting stores.
system.switch_cpus.memDep0.insertedLoads      2989093                       # Number of loads inserted to the mem dependence unit.
system.switch_cpus.memDep0.insertedStores       207225                       # Number of stores inserted to the mem dependence unit.
system.switch_cpus.misc_regfile_reads         5337915                       # number of misc regfile reads
system.switch_cpus.misc_regfile_writes              1                       # number of misc regfile writes
system.switch_cpus.numCycles                 21142328                       # number of cpu cycles simulated
system.switch_cpus.numWorkItemsCompleted            0                       # number of work items this cpu completed
system.switch_cpus.numWorkItemsStarted              0                       # number of work items this cpu started
system.switch_cpus.rename.BlockCycles        15687162                       # Number of cycles rename is blocking
system.switch_cpus.rename.CommittedMaps      21300770                       # Number of HB maps that are committed
system.switch_cpus.rename.IQFullEvents        1210317                       # Number of times rename has blocked due to IQ full
system.switch_cpus.rename.IdleCycles          1113570                       # Number of cycles rename is idle
system.switch_cpus.rename.ROBFullEvents         30536                       # Number of times rename has blocked due to ROB full
system.switch_cpus.rename.RenameLookups      45007964                       # Number of register rename lookups that rename has made
system.switch_cpus.rename.RenamedInsts       21150826                       # Number of instructions processed by rename
system.switch_cpus.rename.RenamedOperands     24026980                       # Number of destination operands rename has renamed
system.switch_cpus.rename.RunCycles           2520401                       # Number of cycles rename is running
system.switch_cpus.rename.SQFullEvents         319568                       # Number of times rename has blocked due to SQ full
system.switch_cpus.rename.SquashCycles          46046                       # Number of cycles rename is squashing
system.switch_cpus.rename.UnblockCycles       1738888                       # Number of cycles rename is unblocking
system.switch_cpus.rename.UndoneMaps          2726088                       # Number of HB maps that are undone due to squashing
system.switch_cpus.rename.fp_rename_lookups     18674607                       # Number of floating rename lookups
system.switch_cpus.rename.int_rename_lookups     14783830                       # Number of integer rename lookups
system.switch_cpus.rename.serializeStallCycles            0                       # count of cycles rename stalled for serializing inst
system.switch_cpus.rename.serializingInsts            0                       # count of serializing insts renamed
system.switch_cpus.rename.skidInsts           3606824                       # count of insts added to the skid buffer
system.switch_cpus.rename.tempSerializingInsts            0                       # count of temporary serializing insts renamed
system.switch_cpus.rob.rob_reads             39604048                       # The number of ROB reads
system.switch_cpus.rob.rob_writes            41708045                       # The number of ROB writes
system.switch_cpus.timesIdled                     259                       # Number of times that the entire CPU went into an idle state and unscheduled itself
system.tol2bus.snoop_filter.hit_multi_requests            0                       # Number of requests hitting in the snoop filter with multiple (>1) holders of the requested data.
system.tol2bus.snoop_filter.hit_multi_snoops            0                       # Number of snoops hitting in the snoop filter with multiple (>1) holders of the requested data.
system.tol2bus.snoop_filter.hit_single_requests       156476                       # Number of requests hitting in the snoop filter with a single holder of the requested data.
system.tol2bus.snoop_filter.hit_single_snoops          359                       # Number of snoops hitting in the snoop filter with a single holder of the requested data.
system.tol2bus.snoop_filter.tot_requests       313749                       # Total number of requests made to the snoop filter.
system.tol2bus.snoop_filter.tot_snoops            359                       # Total number of snoops made to the snoop filter.
system.membus.pwrStateResidencyTicks::UNDEFINED 11089031686264                       # Cumulative time (in ticks) in various power states
system.membus.trans_dist::ReadResp             128076                       # Transaction distribution
system.membus.trans_dist::WritebackDirty         6395                       # Transaction distribution
system.membus.trans_dist::CleanEvict           121796                       # Transaction distribution
system.membus.trans_dist::ReadExReq              4497                       # Transaction distribution
system.membus.trans_dist::ReadExResp             4497                       # Transaction distribution
system.membus.trans_dist::ReadSharedReq        128076                       # Transaction distribution
system.membus.pkt_count_system.l2.mem_side::system.mem_ctrls.port       393337                       # Packet count per connected master and slave (bytes)
system.membus.pkt_count_system.l2.mem_side::total       393337                       # Packet count per connected master and slave (bytes)
system.membus.pkt_count::total                 393337                       # Packet count per connected master and slave (bytes)
system.membus.pkt_size_system.l2.mem_side::system.mem_ctrls.port      8893952                       # Cumulative packet size per connected master and slave (bytes)
system.membus.pkt_size_system.l2.mem_side::total      8893952                       # Cumulative packet size per connected master and slave (bytes)
system.membus.pkt_size::total                 8893952                       # Cumulative packet size per connected master and slave (bytes)
system.membus.snoops                                0                       # Total snoops (count)
system.membus.snoopTraffic                          0                       # Total snoop traffic (bytes)
system.membus.snoop_fanout::samples            132573                       # Request fanout histogram
system.membus.snoop_fanout::mean                    0                       # Request fanout histogram
system.membus.snoop_fanout::stdev                   0                       # Request fanout histogram
system.membus.snoop_fanout::underflows              0      0.00%      0.00% # Request fanout histogram
system.membus.snoop_fanout::0                  132573    100.00%    100.00% # Request fanout histogram
system.membus.snoop_fanout::1                       0      0.00%    100.00% # Request fanout histogram
system.membus.snoop_fanout::overflows               0      0.00%    100.00% # Request fanout histogram
system.membus.snoop_fanout::min_value               0                       # Request fanout histogram
system.membus.snoop_fanout::max_value               0                       # Request fanout histogram
system.membus.snoop_fanout::total              132573                       # Request fanout histogram
system.membus.reqLayer2.occupancy           370723550                       # Layer occupancy (ticks)
system.membus.reqLayer2.utilization               6.3                       # Layer utilization (%)
system.membus.respLayer1.occupancy          702509880                       # Layer occupancy (ticks)
system.membus.respLayer1.utilization             12.0                       # Layer utilization (%)
system.switch_cpus.pwrStateResidencyTicks::OFF   5877577264                       # Cumulative time (in ticks) in various power states
system.switch_cpus.dtb.walker.pwrStateResidencyTicks::UNDEFINED 11089031686264                       # Cumulative time (in ticks) in various power states
system.switch_cpus.itb.walker.pwrStateResidencyTicks::UNDEFINED 11089031686264                       # Cumulative time (in ticks) in various power states
system.tol2bus.pwrStateResidencyTicks::UNDEFINED 11089031686264                       # Cumulative time (in ticks) in various power states
system.tol2bus.trans_dist::ReadResp            152312                       # Transaction distribution
system.tol2bus.trans_dist::WritebackDirty        18032                       # Transaction distribution
system.tol2bus.trans_dist::CleanEvict          266950                       # Transaction distribution
system.tol2bus.trans_dist::ReadExReq             4961                       # Transaction distribution
system.tol2bus.trans_dist::ReadExResp            4961                       # Transaction distribution
system.tol2bus.trans_dist::ReadCleanReq           285                       # Transaction distribution
system.tol2bus.trans_dist::ReadSharedReq       152027                       # Transaction distribution
system.tol2bus.pkt_count_system.cpu.icache.mem_side::system.l2.cpu_side          570                       # Packet count per connected master and slave (bytes)
system.tol2bus.pkt_count_system.cpu.dcache.mem_side::system.l2.cpu_side       470452                       # Packet count per connected master and slave (bytes)
system.tol2bus.pkt_count::total                471022                       # Packet count per connected master and slave (bytes)
system.tol2bus.pkt_size_system.cpu.icache.mem_side::system.l2.cpu_side        18240                       # Cumulative packet size per connected master and slave (bytes)
system.tol2bus.pkt_size_system.cpu.dcache.mem_side::system.l2.cpu_side     10792000                       # Cumulative packet size per connected master and slave (bytes)
system.tol2bus.pkt_size::total               10810240                       # Cumulative packet size per connected master and slave (bytes)
system.tol2bus.snoops                          128506                       # Total snoops (count)
system.tol2bus.snoopTraffic                    409280                       # Total snoop traffic (bytes)
system.tol2bus.snoop_fanout::samples           285779                       # Request fanout histogram
system.tol2bus.snoop_fanout::mean            0.001256                       # Request fanout histogram
system.tol2bus.snoop_fanout::stdev           0.035421                       # Request fanout histogram
system.tol2bus.snoop_fanout::underflows             0      0.00%      0.00% # Request fanout histogram
system.tol2bus.snoop_fanout::0                 285420     99.87%     99.87% # Request fanout histogram
system.tol2bus.snoop_fanout::1                    359      0.13%    100.00% # Request fanout histogram
system.tol2bus.snoop_fanout::2                      0      0.00%    100.00% # Request fanout histogram
system.tol2bus.snoop_fanout::3                      0      0.00%    100.00% # Request fanout histogram
system.tol2bus.snoop_fanout::4                      0      0.00%    100.00% # Request fanout histogram
system.tol2bus.snoop_fanout::overflows              0      0.00%    100.00% # Request fanout histogram
system.tol2bus.snoop_fanout::min_value              0                       # Request fanout histogram
system.tol2bus.snoop_fanout::max_value              1                       # Request fanout histogram
system.tol2bus.snoop_fanout::total             285779                       # Request fanout histogram
system.tol2bus.reqLayer0.occupancy           93691282                       # Layer occupancy (ticks)
system.tol2bus.reqLayer0.utilization              1.6                       # Layer utilization (%)
system.tol2bus.respLayer1.occupancy         130925490                       # Layer occupancy (ticks)
system.tol2bus.respLayer1.utilization             2.2                       # Layer utilization (%)
system.tol2bus.respLayer0.occupancy            237410                       # Layer occupancy (ticks)
system.tol2bus.respLayer0.utilization             0.0                       # Layer utilization (%)
system.voltage_domain.voltage                       1                       # Voltage in Volts
system.clk_domain.clock                          1000                       # Clock period in ticks
system.l2.pwrStateResidencyTicks::UNDEFINED 11089031686264                       # Cumulative time (in ticks) in various power states
system.l2.demand_hits::.switch_cpus.data        24700                       # number of demand (read+write) hits
system.l2.demand_hits::total                    24700                       # number of demand (read+write) hits
system.l2.overall_hits::.switch_cpus.data        24700                       # number of overall hits
system.l2.overall_hits::total                   24700                       # number of overall hits
system.l2.demand_misses::.cpu.inst                  1                       # number of demand (read+write) misses
system.l2.demand_misses::.cpu.data                  3                       # number of demand (read+write) misses
system.l2.demand_misses::.switch_cpus.inst          284                       # number of demand (read+write) misses
system.l2.demand_misses::.switch_cpus.data       132285                       # number of demand (read+write) misses
system.l2.demand_misses::total                 132573                       # number of demand (read+write) misses
system.l2.overall_misses::.cpu.inst                 1                       # number of overall misses
system.l2.overall_misses::.cpu.data                 3                       # number of overall misses
system.l2.overall_misses::.switch_cpus.inst          284                       # number of overall misses
system.l2.overall_misses::.switch_cpus.data       132285                       # number of overall misses
system.l2.overall_misses::total                132573                       # number of overall misses
system.l2.demand_miss_latency::.switch_cpus.inst     21687892                       # number of demand (read+write) miss cycles
system.l2.demand_miss_latency::.switch_cpus.data   9398861690                       # number of demand (read+write) miss cycles
system.l2.demand_miss_latency::total       9420549582                       # number of demand (read+write) miss cycles
system.l2.overall_miss_latency::.switch_cpus.inst     21687892                       # number of overall miss cycles
system.l2.overall_miss_latency::.switch_cpus.data   9398861690                       # number of overall miss cycles
system.l2.overall_miss_latency::total      9420549582                       # number of overall miss cycles
system.l2.demand_accesses::.cpu.inst                1                       # number of demand (read+write) accesses
system.l2.demand_accesses::.cpu.data                3                       # number of demand (read+write) accesses
system.l2.demand_accesses::.switch_cpus.inst          284                       # number of demand (read+write) accesses
system.l2.demand_accesses::.switch_cpus.data       156985                       # number of demand (read+write) accesses
system.l2.demand_accesses::total               157273                       # number of demand (read+write) accesses
system.l2.overall_accesses::.cpu.inst               1                       # number of overall (read+write) accesses
system.l2.overall_accesses::.cpu.data               3                       # number of overall (read+write) accesses
system.l2.overall_accesses::.switch_cpus.inst          284                       # number of overall (read+write) accesses
system.l2.overall_accesses::.switch_cpus.data       156985                       # number of overall (read+write) accesses
system.l2.overall_accesses::total              157273                       # number of overall (read+write) accesses
system.l2.demand_miss_rate::.cpu.inst               1                       # miss rate for demand accesses
system.l2.demand_miss_rate::.cpu.data               1                       # miss rate for demand accesses
system.l2.demand_miss_rate::.switch_cpus.inst            1                       # miss rate for demand accesses
system.l2.demand_miss_rate::.switch_cpus.data     0.842660                       # miss rate for demand accesses
system.l2.demand_miss_rate::total            0.842948                       # miss rate for demand accesses
system.l2.overall_miss_rate::.cpu.inst              1                       # miss rate for overall accesses
system.l2.overall_miss_rate::.cpu.data              1                       # miss rate for overall accesses
system.l2.overall_miss_rate::.switch_cpus.inst            1                       # miss rate for overall accesses
system.l2.overall_miss_rate::.switch_cpus.data     0.842660                       # miss rate for overall accesses
system.l2.overall_miss_rate::total           0.842948                       # miss rate for overall accesses
system.l2.demand_avg_miss_latency::.switch_cpus.inst 76365.816901                       # average overall miss latency
system.l2.demand_avg_miss_latency::.switch_cpus.data 71050.094039                       # average overall miss latency
system.l2.demand_avg_miss_latency::total 71059.337738                       # average overall miss latency
system.l2.overall_avg_miss_latency::.switch_cpus.inst 76365.816901                       # average overall miss latency
system.l2.overall_avg_miss_latency::.switch_cpus.data 71050.094039                       # average overall miss latency
system.l2.overall_avg_miss_latency::total 71059.337738                       # average overall miss latency
system.l2.blocked_cycles::no_mshrs                  0                       # number of cycles access was blocked
system.l2.blocked_cycles::no_targets                0                       # number of cycles access was blocked
system.l2.blocked::no_mshrs                         0                       # number of cycles access was blocked
system.l2.blocked::no_targets                       0                       # number of cycles access was blocked
system.l2.avg_blocked_cycles::no_mshrs            nan                       # average number of cycles each access was blocked
system.l2.avg_blocked_cycles::no_targets          nan                       # average number of cycles each access was blocked
system.l2.writebacks::.writebacks                6395                       # number of writebacks
system.l2.writebacks::total                      6395                       # number of writebacks
system.l2.demand_mshr_misses::.switch_cpus.inst          284                       # number of demand (read+write) MSHR misses
system.l2.demand_mshr_misses::.switch_cpus.data       132285                       # number of demand (read+write) MSHR misses
system.l2.demand_mshr_misses::total            132569                       # number of demand (read+write) MSHR misses
system.l2.overall_mshr_misses::.switch_cpus.inst          284                       # number of overall MSHR misses
system.l2.overall_mshr_misses::.switch_cpus.data       132285                       # number of overall MSHR misses
system.l2.overall_mshr_misses::total           132569                       # number of overall MSHR misses
system.l2.demand_mshr_miss_latency::.switch_cpus.inst     20069232                       # number of demand (read+write) MSHR miss cycles
system.l2.demand_mshr_miss_latency::.switch_cpus.data   8644517264                       # number of demand (read+write) MSHR miss cycles
system.l2.demand_mshr_miss_latency::total   8664586496                       # number of demand (read+write) MSHR miss cycles
system.l2.overall_mshr_miss_latency::.switch_cpus.inst     20069232                       # number of overall MSHR miss cycles
system.l2.overall_mshr_miss_latency::.switch_cpus.data   8644517264                       # number of overall MSHR miss cycles
system.l2.overall_mshr_miss_latency::total   8664586496                       # number of overall MSHR miss cycles
system.l2.demand_mshr_miss_rate::.switch_cpus.inst            1                       # mshr miss rate for demand accesses
system.l2.demand_mshr_miss_rate::.switch_cpus.data     0.842660                       # mshr miss rate for demand accesses
system.l2.demand_mshr_miss_rate::total       0.842923                       # mshr miss rate for demand accesses
system.l2.overall_mshr_miss_rate::.switch_cpus.inst            1                       # mshr miss rate for overall accesses
system.l2.overall_mshr_miss_rate::.switch_cpus.data     0.842660                       # mshr miss rate for overall accesses
system.l2.overall_mshr_miss_rate::total      0.842923                       # mshr miss rate for overall accesses
system.l2.demand_avg_mshr_miss_latency::.switch_cpus.inst 70666.309859                       # average overall mshr miss latency
system.l2.demand_avg_mshr_miss_latency::.switch_cpus.data 65347.675579                       # average overall mshr miss latency
system.l2.demand_avg_mshr_miss_latency::total 65359.069586                       # average overall mshr miss latency
system.l2.overall_avg_mshr_miss_latency::.switch_cpus.inst 70666.309859                       # average overall mshr miss latency
system.l2.overall_avg_mshr_miss_latency::.switch_cpus.data 65347.675579                       # average overall mshr miss latency
system.l2.overall_avg_mshr_miss_latency::total 65359.069586                       # average overall mshr miss latency
system.l2.replacements                         128506                       # number of replacements
system.l2.csize                                     0                       # Cache sizes in total
system.l2.WritebackDirty_hits::.writebacks        11637                       # number of WritebackDirty hits
system.l2.WritebackDirty_hits::total            11637                       # number of WritebackDirty hits
system.l2.WritebackDirty_accesses::.writebacks        11637                       # number of WritebackDirty accesses(hits+misses)
system.l2.WritebackDirty_accesses::total        11637                       # number of WritebackDirty accesses(hits+misses)
system.l2.CleanEvict_mshr_misses::.writebacks           44                       # number of CleanEvict MSHR misses
system.l2.CleanEvict_mshr_misses::total            44                       # number of CleanEvict MSHR misses
system.l2.CleanEvict_mshr_miss_rate::.writebacks          inf                       # mshr miss rate for CleanEvict accesses
system.l2.CleanEvict_mshr_miss_rate::total          inf                       # mshr miss rate for CleanEvict accesses
system.l2.ReadExReq_hits::.switch_cpus.data          464                       # number of ReadExReq hits
system.l2.ReadExReq_hits::total                   464                       # number of ReadExReq hits
system.l2.ReadExReq_misses::.switch_cpus.data         4497                       # number of ReadExReq misses
system.l2.ReadExReq_misses::total                4497                       # number of ReadExReq misses
system.l2.ReadExReq_miss_latency::.switch_cpus.data    309557726                       # number of ReadExReq miss cycles
system.l2.ReadExReq_miss_latency::total     309557726                       # number of ReadExReq miss cycles
system.l2.ReadExReq_accesses::.switch_cpus.data         4961                       # number of ReadExReq accesses(hits+misses)
system.l2.ReadExReq_accesses::total              4961                       # number of ReadExReq accesses(hits+misses)
system.l2.ReadExReq_miss_rate::.switch_cpus.data     0.906470                       # miss rate for ReadExReq accesses
system.l2.ReadExReq_miss_rate::total         0.906470                       # miss rate for ReadExReq accesses
system.l2.ReadExReq_avg_miss_latency::.switch_cpus.data 68836.496776                       # average ReadExReq miss latency
system.l2.ReadExReq_avg_miss_latency::total 68836.496776                       # average ReadExReq miss latency
system.l2.ReadExReq_mshr_misses::.switch_cpus.data         4497                       # number of ReadExReq MSHR misses
system.l2.ReadExReq_mshr_misses::total           4497                       # number of ReadExReq MSHR misses
system.l2.ReadExReq_mshr_miss_latency::.switch_cpus.data    283923568                       # number of ReadExReq MSHR miss cycles
system.l2.ReadExReq_mshr_miss_latency::total    283923568                       # number of ReadExReq MSHR miss cycles
system.l2.ReadExReq_mshr_miss_rate::.switch_cpus.data     0.906470                       # mshr miss rate for ReadExReq accesses
system.l2.ReadExReq_mshr_miss_rate::total     0.906470                       # mshr miss rate for ReadExReq accesses
system.l2.ReadExReq_avg_mshr_miss_latency::.switch_cpus.data 63136.217034                       # average ReadExReq mshr miss latency
system.l2.ReadExReq_avg_mshr_miss_latency::total 63136.217034                       # average ReadExReq mshr miss latency
system.l2.ReadCleanReq_misses::.cpu.inst            1                       # number of ReadCleanReq misses
system.l2.ReadCleanReq_misses::.switch_cpus.inst          284                       # number of ReadCleanReq misses
system.l2.ReadCleanReq_misses::total              285                       # number of ReadCleanReq misses
system.l2.ReadCleanReq_miss_latency::.switch_cpus.inst     21687892                       # number of ReadCleanReq miss cycles
system.l2.ReadCleanReq_miss_latency::total     21687892                       # number of ReadCleanReq miss cycles
system.l2.ReadCleanReq_accesses::.cpu.inst            1                       # number of ReadCleanReq accesses(hits+misses)
system.l2.ReadCleanReq_accesses::.switch_cpus.inst          284                       # number of ReadCleanReq accesses(hits+misses)
system.l2.ReadCleanReq_accesses::total            285                       # number of ReadCleanReq accesses(hits+misses)
system.l2.ReadCleanReq_miss_rate::.cpu.inst            1                       # miss rate for ReadCleanReq accesses
system.l2.ReadCleanReq_miss_rate::.switch_cpus.inst            1                       # miss rate for ReadCleanReq accesses
system.l2.ReadCleanReq_miss_rate::total             1                       # miss rate for ReadCleanReq accesses
system.l2.ReadCleanReq_avg_miss_latency::.switch_cpus.inst 76365.816901                       # average ReadCleanReq miss latency
system.l2.ReadCleanReq_avg_miss_latency::total 76097.866667                       # average ReadCleanReq miss latency
system.l2.ReadCleanReq_mshr_misses::.switch_cpus.inst          284                       # number of ReadCleanReq MSHR misses
system.l2.ReadCleanReq_mshr_misses::total          284                       # number of ReadCleanReq MSHR misses
[...]
system.cpu.itb_walker_cache.pwrStateResidencyTicks::UNDEFINED 11089031686264                       # Cumulative time (in ticks) in various power states
system.cpu.itb_walker_cache.blocked_cycles::no_mshrs            0                       # number of cycles access was blocked
system.cpu.itb_walker_cache.blocked_cycles::no_targets            0                       # number of cycles access was blocked
system.cpu.itb_walker_cache.blocked::no_mshrs            0                       # number of cycles access was blocked
system.cpu.itb_walker_cache.blocked::no_targets            0                       # number of cycles access was blocked
system.cpu.itb_walker_cache.avg_blocked_cycles::no_mshrs          nan                       # average number of cycles each access was blocked
system.cpu.itb_walker_cache.avg_blocked_cycles::no_targets          nan                       # average number of cycles each access was blocked
system.cpu.itb_walker_cache.replacements            0                       # number of replacements
system.cpu.itb_walker_cache.csize                   0                       # Cache sizes in total
system.cpu.itb_walker_cache.tags.pwrStateResidencyTicks::UNDEFINED 11089031686264                       # Cumulative time (in ticks) in various power states
system.cpu.itb_walker_cache.tags.tagsinuse            0                       # Cycle average of tags in use
system.cpu.itb_walker_cache.tags.total_refs            0                       # Total number of references to valid blocks.
system.cpu.itb_walker_cache.tags.sampled_refs            0                       # Sample count of references to valid blocks.
system.cpu.itb_walker_cache.tags.avg_refs          nan                       # Average number of references to valid blocks.
system.cpu.itb_walker_cache.tags.warmup_cycle            0                       # Cycle when the warmup percentage was hit.
system.cpu.itb_walker_cache.tags.tag_accesses            0                       # Number of tag accesses
system.cpu.itb_walker_cache.tags.data_accesses            0                       # Number of data accesses
system.cpu.itb.walker.pwrStateResidencyTicks::UNDEFINED 11089031686264                       # Cumulative time (in ticks) in various power states
system.cpu.dtb_walker_cache.pwrStateResidencyTicks::UNDEFINED 11089031686264                       # Cumulative time (in ticks) in various power states
system.cpu.dtb_walker_cache.blocked_cycles::no_mshrs            0                       # number of cycles access was blocked
system.cpu.dtb_walker_cache.blocked_cycles::no_targets            0                       # number of cycles access was blocked
system.cpu.dtb_walker_cache.blocked::no_mshrs            0                       # number of cycles access was blocked
system.cpu.dtb_walker_cache.blocked::no_targets            0                       # number of cycles access was blocked
system.cpu.dtb_walker_cache.avg_blocked_cycles::no_mshrs          nan                       # average number of cycles each access was blocked
system.cpu.dtb_walker_cache.avg_blocked_cycles::no_targets          nan                       # average number of cycles each access was blocked
system.cpu.dtb_walker_cache.replacements            0                       # number of replacements
system.cpu.dtb_walker_cache.csize                   0                       # Cache sizes in total
system.cpu.dtb_walker_cache.tags.pwrStateResidencyTicks::UNDEFINED 11089031686264                       # Cumulative time (in ticks) in various power states
system.cpu.dtb_walker_cache.tags.tagsinuse            0                       # Cycle average of tags in use
system.cpu.dtb_walker_cache.tags.total_refs            0                       # Total number of references to valid blocks.
system.cpu.dtb_walker_cache.tags.sampled_refs            0                       # Sample count of references to valid blocks.
system.cpu.dtb_walker_cache.tags.avg_refs          nan                       # Average number of references to valid blocks.
system.cpu.dtb_walker_cache.tags.warmup_cycle            0                       # Cycle when the warmup percentage was hit.
system.cpu.dtb_walker_cache.tags.tag_accesses            0                       # Number of tag accesses
system.cpu.dtb_walker_cache.tags.data_accesses            0                       # Number of data accesses
system.cpu.dcache.pwrStateResidencyTicks::UNDEFINED 11089031686264                       # Cumulative time (in ticks) in various power states
system.cpu.dcache.demand_hits::.cpu.data            3                       # number of demand (read+write) hits
system.cpu.dcache.demand_hits::.switch_cpus.data      2484277                       # number of demand (read+write) hits
system.cpu.dcache.demand_hits::total          2484280                       # number of demand (read+write) hits
system.cpu.dcache.overall_hits::.cpu.data            3                       # number of overall hits
system.cpu.dcache.overall_hits::.switch_cpus.data      2484277                       # number of overall hits
system.cpu.dcache.overall_hits::total         2484280                       # number of overall hits
system.cpu.dcache.demand_misses::.cpu.data            3                       # number of demand (read+write) misses
system.cpu.dcache.demand_misses::.switch_cpus.data       576676                       # number of demand (read+write) misses
system.cpu.dcache.demand_misses::total         576679                       # number of demand (read+write) misses
system.cpu.dcache.overall_misses::.cpu.data            3                       # number of overall misses
system.cpu.dcache.overall_misses::.switch_cpus.data       576676                       # number of overall misses
system.cpu.dcache.overall_misses::total        576679                       # number of overall misses
system.cpu.dcache.demand_miss_latency::.switch_cpus.data  30497783141                       # number of demand (read+write) miss cycles
system.cpu.dcache.demand_miss_latency::total  30497783141                       # number of demand (read+write) miss cycles
system.cpu.dcache.overall_miss_latency::.switch_cpus.data  30497783141                       # number of overall miss cycles
system.cpu.dcache.overall_miss_latency::total  30497783141                       # number of overall miss cycles
system.cpu.dcache.demand_accesses::.cpu.data            6                       # number of demand (read+write) accesses
system.cpu.dcache.demand_accesses::.switch_cpus.data      3060953                       # number of demand (read+write) accesses
system.cpu.dcache.demand_accesses::total      3060959                       # number of demand (read+write) accesses
system.cpu.dcache.overall_accesses::.cpu.data            6                       # number of overall (read+write) accesses
system.cpu.dcache.overall_accesses::.switch_cpus.data      3060953                       # number of overall (read+write) accesses
system.cpu.dcache.overall_accesses::total      3060959                       # number of overall (read+write) accesses
system.cpu.dcache.demand_miss_rate::.cpu.data     0.500000                       # miss rate for demand accesses
system.cpu.dcache.demand_miss_rate::.switch_cpus.data     0.188398                       # miss rate for demand accesses
system.cpu.dcache.demand_miss_rate::total     0.188398                       # miss rate for demand accesses
system.cpu.dcache.overall_miss_rate::.cpu.data     0.500000                       # miss rate for overall accesses
system.cpu.dcache.overall_miss_rate::.switch_cpus.data     0.188398                       # miss rate for overall accesses
system.cpu.dcache.overall_miss_rate::total     0.188398                       # miss rate for overall accesses
system.cpu.dcache.demand_avg_miss_latency::.switch_cpus.data 52885.473196                       # average overall miss latency
system.cpu.dcache.demand_avg_miss_latency::total 52885.198076                       # average overall miss latency
system.cpu.dcache.overall_avg_miss_latency::.switch_cpus.data 52885.473196                       # average overall miss latency
system.cpu.dcache.overall_avg_miss_latency::total 52885.198076                       # average overall miss latency
system.cpu.dcache.blocked_cycles::no_mshrs       844972                       # number of cycles access was blocked
system.cpu.dcache.blocked_cycles::no_targets           67                       # number of cycles access was blocked
system.cpu.dcache.blocked::no_mshrs             22464                       # number of cycles access was blocked
system.cpu.dcache.blocked::no_targets               1                       # number of cycles access was blocked
system.cpu.dcache.avg_blocked_cycles::no_mshrs    37.614494                       # average number of cycles each access was blocked
system.cpu.dcache.avg_blocked_cycles::no_targets           67                       # average number of cycles each access was blocked
system.cpu.dcache.writebacks::.writebacks        11637                       # number of writebacks
system.cpu.dcache.writebacks::total             11637                       # number of writebacks
system.cpu.dcache.demand_mshr_hits::.switch_cpus.data       419691                       # number of demand (read+write) MSHR hits
system.cpu.dcache.demand_mshr_hits::total       419691                       # number of demand (read+write) MSHR hits
system.cpu.dcache.overall_mshr_hits::.switch_cpus.data       419691                       # number of overall MSHR hits
system.cpu.dcache.overall_mshr_hits::total       419691                       # number of overall MSHR hits
system.cpu.dcache.demand_mshr_misses::.switch_cpus.data       156985                       # number of demand (read+write) MSHR misses
system.cpu.dcache.demand_mshr_misses::total       156985                       # number of demand (read+write) MSHR misses
system.cpu.dcache.overall_mshr_misses::.switch_cpus.data       156985                       # number of overall MSHR misses
system.cpu.dcache.overall_mshr_misses::total       156985                       # number of overall MSHR misses
system.cpu.dcache.demand_mshr_miss_latency::.switch_cpus.data   9679801235                       # number of demand (read+write) MSHR miss cycles
system.cpu.dcache.demand_mshr_miss_latency::total   9679801235                       # number of demand (read+write) MSHR miss cycles
system.cpu.dcache.overall_mshr_miss_latency::.switch_cpus.data   9679801235                       # number of overall MSHR miss cycles
system.cpu.dcache.overall_mshr_miss_latency::total   9679801235                       # number of overall MSHR miss cycles
system.cpu.dcache.demand_mshr_miss_rate::.switch_cpus.data     0.051286                       # mshr miss rate for demand accesses
system.cpu.dcache.demand_mshr_miss_rate::total     0.051286                       # mshr miss rate for demand accesses
system.cpu.dcache.overall_mshr_miss_rate::.switch_cpus.data     0.051286                       # mshr miss rate for overall accesses
system.cpu.dcache.overall_mshr_miss_rate::total     0.051286                       # mshr miss rate for overall accesses
system.cpu.dcache.demand_avg_mshr_miss_latency::.switch_cpus.data 61660.676084                       # average overall mshr miss latency
system.cpu.dcache.demand_avg_mshr_miss_latency::total 61660.676084                       # average overall mshr miss latency
system.cpu.dcache.overall_avg_mshr_miss_latency::.switch_cpus.data 61660.676084                       # average overall mshr miss latency
system.cpu.dcache.overall_avg_mshr_miss_latency::total 61660.676084                       # average overall mshr miss latency
system.cpu.dcache.replacements                 156476                       # number of replacements
system.cpu.dcache.csize                      15534409                       # Cache sizes in total
system.cpu.dcache.ReadReq_hits::.cpu.data            3                       # number of ReadReq hits
system.cpu.dcache.ReadReq_hits::.switch_cpus.data      2327083                       # number of ReadReq hits
system.cpu.dcache.ReadReq_hits::total         2327086                       # number of ReadReq hits
system.cpu.dcache.ReadReq_misses::.cpu.data            3                       # number of ReadReq misses
system.cpu.dcache.ReadReq_misses::.switch_cpus.data       571706                       # number of ReadReq misses
system.cpu.dcache.ReadReq_misses::total        571709                       # number of ReadReq misses
system.cpu.dcache.ReadReq_miss_latency::.switch_cpus.data  30178464584                       # number of ReadReq miss cycles
system.cpu.dcache.ReadReq_miss_latency::total  30178464584                       # number of ReadReq miss cycles
system.cpu.dcache.ReadReq_accesses::.cpu.data            6                       # number of ReadReq accesses(hits+misses)
system.cpu.dcache.ReadReq_accesses::.switch_cpus.data      2898789                       # number of ReadReq accesses(hits+misses)
system.cpu.dcache.ReadReq_accesses::total      2898795                       # number of ReadReq accesses(hits+misses)
system.cpu.dcache.ReadReq_miss_rate::.cpu.data     0.500000                       # miss rate for ReadReq accesses
system.cpu.dcache.ReadReq_miss_rate::.switch_cpus.data     0.197222                       # miss rate for ReadReq accesses
system.cpu.dcache.ReadReq_miss_rate::total     0.197223                       # miss rate for ReadReq accesses
system.cpu.dcache.ReadReq_avg_miss_latency::.switch_cpus.data 52786.685086                       # average ReadReq miss latency
system.cpu.dcache.ReadReq_avg_miss_latency::total 52786.408092                       # average ReadReq miss latency
system.cpu.dcache.ReadReq_mshr_hits::.switch_cpus.data       419682                       # number of ReadReq MSHR hits
system.cpu.dcache.ReadReq_mshr_hits::total       419682                       # number of ReadReq MSHR hits
system.cpu.dcache.ReadReq_mshr_misses::.switch_cpus.data       152024                       # number of ReadReq MSHR misses
system.cpu.dcache.ReadReq_mshr_misses::total       152024                       # number of ReadReq MSHR misses
system.cpu.dcache.ReadReq_mshr_miss_latency::.switch_cpus.data   9363296038                       # number of ReadReq MSHR miss cycles
system.cpu.dcache.ReadReq_mshr_miss_latency::total   9363296038                       # number of ReadReq MSHR miss cycles
system.cpu.dcache.ReadReq_mshr_miss_rate::.switch_cpus.data     0.052444                       # mshr miss rate for ReadReq accesses
system.cpu.dcache.ReadReq_mshr_miss_rate::total     0.052444                       # mshr miss rate for ReadReq accesses
system.cpu.dcache.ReadReq_avg_mshr_miss_latency::.switch_cpus.data 61590.906949                       # average ReadReq mshr miss latency
system.cpu.dcache.ReadReq_avg_mshr_miss_latency::total 61590.906949                       # average ReadReq mshr miss latency
system.cpu.dcache.WriteReq_hits::.switch_cpus.data       157194                       # number of WriteReq hits
system.cpu.dcache.WriteReq_hits::total         157194                       # number of WriteReq hits
system.cpu.dcache.WriteReq_misses::.switch_cpus.data         4970                       # number of WriteReq misses
system.cpu.dcache.WriteReq_misses::total         4970                       # number of WriteReq misses
system.cpu.dcache.WriteReq_miss_latency::.switch_cpus.data    319318557                       # number of WriteReq miss cycles
system.cpu.dcache.WriteReq_miss_latency::total    319318557                       # number of WriteReq miss cycles
system.cpu.dcache.WriteReq_accesses::.switch_cpus.data       162164                       # number of WriteReq accesses(hits+misses)
system.cpu.dcache.WriteReq_accesses::total       162164                       # number of WriteReq accesses(hits+misses)
system.cpu.dcache.WriteReq_miss_rate::.switch_cpus.data     0.030648                       # miss rate for WriteReq accesses
system.cpu.dcache.WriteReq_miss_rate::total     0.030648                       # miss rate for WriteReq accesses
system.cpu.dcache.WriteReq_avg_miss_latency::.switch_cpus.data 64249.206640                       # average WriteReq miss latency
system.cpu.dcache.WriteReq_avg_miss_latency::total 64249.206640                       # average WriteReq miss latency
system.cpu.dcache.WriteReq_mshr_hits::.switch_cpus.data            9                       # number of WriteReq MSHR hits
system.cpu.dcache.WriteReq_mshr_hits::total            9                       # number of WriteReq MSHR hits
system.cpu.dcache.WriteReq_mshr_misses::.switch_cpus.data         4961                       # number of WriteReq MSHR misses
system.cpu.dcache.WriteReq_mshr_misses::total         4961                       # number of WriteReq MSHR misses
system.cpu.dcache.WriteReq_mshr_miss_latency::.switch_cpus.data    316505197                       # number of WriteReq MSHR miss cycles
system.cpu.dcache.WriteReq_mshr_miss_latency::total    316505197                       # number of WriteReq MSHR miss cycles
system.cpu.dcache.WriteReq_mshr_miss_rate::.switch_cpus.data     0.030592                       # mshr miss rate for WriteReq accesses
system.cpu.dcache.WriteReq_mshr_miss_rate::total     0.030592                       # mshr miss rate for WriteReq accesses
system.cpu.dcache.WriteReq_avg_mshr_miss_latency::.switch_cpus.data 63798.669018                       # average WriteReq mshr miss latency
system.cpu.dcache.WriteReq_avg_mshr_miss_latency::total 63798.669018                       # average WriteReq mshr miss latency
system.cpu.dcache.tags.pwrStateResidencyTicks::UNDEFINED 11089031686264                       # Cumulative time (in ticks) in various power states
system.cpu.dcache.tags.tagsinuse             0.270861                       # Cycle average of tags in use
system.cpu.dcache.tags.total_refs             2641268                       # Total number of references to valid blocks.
system.cpu.dcache.tags.sampled_refs            156988                       # Sample count of references to valid blocks.
system.cpu.dcache.tags.avg_refs             16.824649                       # Average number of references to valid blocks.
system.cpu.dcache.tags.warmup_cycle      11083154109906                       # Cycle when the warmup percentage was hit.
system.cpu.dcache.tags.occ_blocks::.cpu.data     0.000144                       # Average occupied blocks per requestor
system.cpu.dcache.tags.occ_blocks::.switch_cpus.data     0.270718                       # Average occupied blocks per requestor
system.cpu.dcache.tags.occ_percent::.cpu.data     0.000000                       # Average percentage of cache occupancy
system.cpu.dcache.tags.occ_percent::.switch_cpus.data     0.000529                       # Average percentage of cache occupancy
system.cpu.dcache.tags.occ_percent::total     0.000529                       # Average percentage of cache occupancy
system.cpu.dcache.tags.occ_task_id_blocks::1024          512                       # Occupied blocks per task id
system.cpu.dcache.tags.age_task_id_blocks_1024::0          224                       # Occupied blocks per task id
system.cpu.dcache.tags.age_task_id_blocks_1024::1          279                       # Occupied blocks per task id
system.cpu.dcache.tags.age_task_id_blocks_1024::2            9                       # Occupied blocks per task id
system.cpu.dcache.tags.occ_task_id_percent::1024            1                       # Percentage of cache occupancy per task id
system.cpu.dcache.tags.tag_accesses          24644660                       # Number of tag accesses
system.cpu.dcache.tags.data_accesses         24644660                       # Number of data accesses

---------- End Simulation Statistics   ----------
