
---------- Begin Simulation Statistics ----------
final_tick                                58115017906                       # Number of ticks from beginning of simulation (restored from checkpoints and never reset)
host_inst_rate                                  25476                       # Simulator instruction rate (inst/s)
host_mem_usage                                 660308                       # Number of bytes of host memory used
host_op_rate                                    39616                       # Simulator op (including micro ops) rate (op/s)
host_seconds                                   785.06                       # Real time elapsed on the host
host_tick_rate                               74026375                       # Simulator tick rate (ticks/s)
sim_freq                                 1000000000000                       # Frequency of simulated ticks
sim_insts                                    20000000                       # Number of instructions simulated
sim_ops                                      31100666                       # Number of ops (including micro ops) simulated
sim_seconds                                  0.058115                       # Number of seconds simulated
sim_ticks                                 58115017906                       # Number of ticks simulated
system.cpu.cc_regfile_reads                  41915283                       # number of cc regfile reads
system.cpu.cc_regfile_writes                 22195883                       # number of cc regfile writes
system.cpu.committedInsts                    20000000                       # Number of Instructions Simulated
system.cpu.committedOps                      31100666                       # Number of Ops (including micro ops) Simulated
system.cpu.cpi                              10.452341                       # CPI: Cycles Per Instruction
system.cpu.cpi_total                        10.452341                       # CPI: Total CPI of All Threads
system.cpu.fp_regfile_reads                      1159                       # number of floating regfile reads
system.cpu.fp_regfile_writes                      431                       # number of floating regfile writes
system.cpu.idleCycles                           58328                       # Total number of cycles that the CPU has spent unscheduled due to idling
system.cpu.iew.branchMispredicts                31510                       # Number of branch mispredicts detected at execute
system.cpu.iew.exec_branches                  7573694                       # Number of branches executed
system.cpu.iew.exec_nop                             0                       # number of nop insts executed
system.cpu.iew.exec_rate                     1.181297                       # Inst execution rate
system.cpu.iew.exec_refs                    134786314                       # number of memory reference insts executed
system.cpu.iew.exec_stores                   66571462                       # Number of stores executed
system.cpu.iew.exec_swp                             0                       # number of swp insts executed
system.cpu.iew.iewBlockCycles                33088105                       # Number of cycles IEW is blocking
system.cpu.iew.iewDispLoadInsts              68254740                       # Number of dispatched load instructions
system.cpu.iew.iewDispNonSpecInsts            7865076                       # Number of dispatched non-speculative instructions
system.cpu.iew.iewDispSquashedInsts               820                       # Number of squashed instructions skipped by dispatch
system.cpu.iew.iewDispStoreInsts             67109212                       # Number of dispatched store instructions
system.cpu.iew.iewDispatchedInsts           255400276                       # Number of instructions dispatched to IQ
system.cpu.iew.iewExecLoadInsts              68214852                       # Number of load instructions executed
system.cpu.iew.iewExecSquashedInsts            406324                       # Number of squashed instructions skipped in execute
system.cpu.iew.iewExecutedInsts             246946472                       # Number of executed instructions
system.cpu.iew.iewIQFullEvents                    108                       # Number of times the IQ has become full, causing a stall
system.cpu.iew.iewIdleCycles                        0                       # Number of cycles IEW is idle
system.cpu.iew.iewLSQFullEvents               3216685                       # Number of times the LSQ has become full, causing a stall
system.cpu.iew.iewSquashCycles                1930189                       # Number of cycles IEW is squashing
system.cpu.iew.iewUnblockCycles               2904535                       # Number of cycles IEW is unblocking
system.cpu.iew.memOrderViolationEvents            274                       # Number of memory order violations
system.cpu.iew.predictedNotTakenIncorrect         8804                       # Number of branches that were predicted not taken incorrectly
system.cpu.iew.predictedTakenIncorrect          22706                       # Number of branches that were predicted taken incorrectly
system.cpu.iew.wb_consumers                 112188180                       # num instructions consuming a value
system.cpu.iew.wb_count                     179380957                       # cumulative count of insts written-back
system.cpu.iew.wb_fanout                     0.815286                       # average fanout of values written-back
system.cpu.iew.wb_producers                  91465492                       # num instructions producing a value
system.cpu.iew.wb_rate                       0.858090                       # insts written-back per cycle
system.cpu.iew.wb_sent                      243899416                       # cumulative count of insts sent to commit
system.cpu.int_regfile_reads                463615936                       # number of integer regfile reads
system.cpu.int_regfile_writes               106812702                       # number of integer regfile writes
system.cpu.ipc                               0.095672                       # IPC: Instructions Per Cycle
system.cpu.ipc_total                         0.095672                       # IPC: Total IPC of All Threads
system.cpu.iq.FU_type_0::No_OpClass          62983874     25.46%     25.46% # Type of FU issued
system.cpu.iq.FU_type_0::IntAlu              49223021     19.90%     45.36% # Type of FU issued
system.cpu.iq.FU_type_0::IntMult                  102      0.00%     45.36% # Type of FU issued
system.cpu.iq.FU_type_0::IntDiv                    60      0.00%     45.36% # Type of FU issued
system.cpu.iq.FU_type_0::FloatAdd                   8      0.00%     45.36% # Type of FU issued
system.cpu.iq.FU_type_0::FloatCmp                   0      0.00%     45.36% # Type of FU issued
system.cpu.iq.FU_type_0::FloatCvt                   0      0.00%     45.36% # Type of FU issued
system.cpu.iq.FU_type_0::FloatMult                  0      0.00%     45.36% # Type of FU issued
system.cpu.iq.FU_type_0::FloatMultAcc               0      0.00%     45.36% # Type of FU issued
system.cpu.iq.FU_type_0::FloatDiv                   0      0.00%     45.36% # Type of FU issued
system.cpu.iq.FU_type_0::FloatMisc                  0      0.00%     45.36% # Type of FU issued
system.cpu.iq.FU_type_0::FloatSqrt                  0      0.00%     45.36% # Type of FU issued
system.cpu.iq.FU_type_0::SimdAdd                    0      0.00%     45.36% # Type of FU issued
system.cpu.iq.FU_type_0::SimdAddAcc                 0      0.00%     45.36% # Type of FU issued
system.cpu.iq.FU_type_0::SimdAlu                  123      0.00%     45.36% # Type of FU issued
system.cpu.iq.FU_type_0::SimdCmp                    0      0.00%     45.36% # Type of FU issued
system.cpu.iq.FU_type_0::SimdCvt                  120      0.00%     45.36% # Type of FU issued
system.cpu.iq.FU_type_0::SimdMisc                 172      0.00%     45.36% # Type of FU issued
system.cpu.iq.FU_type_0::SimdMult                   0      0.00%     45.36% # Type of FU issued
system.cpu.iq.FU_type_0::SimdMultAcc                0      0.00%     45.36% # Type of FU issued
system.cpu.iq.FU_type_0::SimdShift                  0      0.00%     45.36% # Type of FU issued
system.cpu.iq.FU_type_0::SimdShiftAcc               0      0.00%     45.36% # Type of FU issued
system.cpu.iq.FU_type_0::SimdDiv                    0      0.00%     45.36% # Type of FU issued
system.cpu.iq.FU_type_0::SimdSqrt                   0      0.00%     45.36% # Type of FU issued
system.cpu.iq.FU_type_0::SimdFloatAdd               0      0.00%     45.36% # Type of FU issued
system.cpu.iq.FU_type_0::SimdFloatAlu               0      0.00%     45.36% # Type of FU issued
system.cpu.iq.FU_type_0::SimdFloatCmp               0      0.00%     45.36% # Type of FU issued
system.cpu.iq.FU_type_0::SimdFloatCvt               0      0.00%     45.36% # Type of FU issued
system.cpu.iq.FU_type_0::SimdFloatDiv               0      0.00%     45.36% # Type of FU issued
system.cpu.iq.FU_type_0::SimdFloatMisc              0      0.00%     45.36% # Type of FU issued
system.cpu.iq.FU_type_0::SimdFloatMult              0      0.00%     45.36% # Type of FU issued
system.cpu.iq.FU_type_0::SimdFloatMultAcc            0      0.00%     45.36% # Type of FU issued
system.cpu.iq.FU_type_0::SimdFloatSqrt              0      0.00%     45.36% # Type of FU issued
system.cpu.iq.FU_type_0::SimdReduceAdd              0      0.00%     45.36% # Type of FU issued
system.cpu.iq.FU_type_0::SimdReduceAlu              0      0.00%     45.36% # Type of FU issued
system.cpu.iq.FU_type_0::SimdReduceCmp              0      0.00%     45.36% # Type of FU issued
system.cpu.iq.FU_type_0::SimdFloatReduceAdd            0      0.00%     45.36% # Type of FU issued
system.cpu.iq.FU_type_0::SimdFloatReduceCmp            0      0.00%     45.36% # Type of FU issued
system.cpu.iq.FU_type_0::SimdAes                    0      0.00%     45.36% # Type of FU issued
system.cpu.iq.FU_type_0::SimdAesMix                 0      0.00%     45.36% # Type of FU issued
system.cpu.iq.FU_type_0::SimdSha1Hash               0      0.00%     45.36% # Type of FU issued
system.cpu.iq.FU_type_0::SimdSha1Hash2              0      0.00%     45.36% # Type of FU issued
system.cpu.iq.FU_type_0::SimdSha256Hash             0      0.00%     45.36% # Type of FU issued
system.cpu.iq.FU_type_0::SimdSha256Hash2            0      0.00%     45.36% # Type of FU issued
system.cpu.iq.FU_type_0::SimdShaSigma2              0      0.00%     45.36% # Type of FU issued
system.cpu.iq.FU_type_0::SimdShaSigma3              0      0.00%     45.36% # Type of FU issued
system.cpu.iq.FU_type_0::SimdPredAlu                0      0.00%     45.36% # Type of FU issued
system.cpu.iq.FU_type_0::MemRead             68238685     27.59%     72.95% # Type of FU issued
system.cpu.iq.FU_type_0::MemWrite            66906372     27.05%    100.00% # Type of FU issued
system.cpu.iq.FU_type_0::FloatMemRead              94      0.00%    100.00% # Type of FU issued
system.cpu.iq.FU_type_0::FloatMemWrite            169      0.00%    100.00% # Type of FU issued
system.cpu.iq.FU_type_0::IprAccess                  0      0.00%    100.00% # Type of FU issued
system.cpu.iq.FU_type_0::InstPrefetch               0      0.00%    100.00% # Type of FU issued
system.cpu.iq.FU_type_0::total              247352800                       # Type of FU issued
system.cpu.iq.fp_alu_accesses                     758                       # Number of floating point alu accesses
system.cpu.iq.fp_inst_queue_reads                1492                       # Number of floating instruction queue reads
system.cpu.iq.fp_inst_queue_wakeup_accesses          712                       # Number of floating instruction queue wakeup accesses
system.cpu.iq.fp_inst_queue_writes                948                       # Number of floating instruction queue writes
system.cpu.iq.fu_busy_cnt                    17863776                       # FU busy when requested
system.cpu.iq.fu_busy_rate                   0.072220                       # FU busy rate (busy events/executed inst)
system.cpu.iq.fu_full::No_OpClass                   0      0.00%      0.00% # attempts to use FU when none available
system.cpu.iq.fu_full::IntAlu                   73319      0.41%      0.41% # attempts to use FU when none available
system.cpu.iq.fu_full::IntMult                      0      0.00%      0.41% # attempts to use FU when none available
system.cpu.iq.fu_full::IntDiv                       0      0.00%      0.41% # attempts to use FU when none available
system.cpu.iq.fu_full::FloatAdd                     0      0.00%      0.41% # attempts to use FU when none available
system.cpu.iq.fu_full::FloatCmp                     0      0.00%      0.41% # attempts to use FU when none available
system.cpu.iq.fu_full::FloatCvt                     0      0.00%      0.41% # attempts to use FU when none available
system.cpu.iq.fu_full::FloatMult                    0      0.00%      0.41% # attempts to use FU when none available
system.cpu.iq.fu_full::FloatMultAcc                 0      0.00%      0.41% # attempts to use FU when none available
system.cpu.iq.fu_full::FloatDiv                     0      0.00%      0.41% # attempts to use FU when none available
system.cpu.iq.fu_full::FloatMisc                    0      0.00%      0.41% # attempts to use FU when none available
system.cpu.iq.fu_full::FloatSqrt                    0      0.00%      0.41% # attempts to use FU when none available
system.cpu.iq.fu_full::SimdAdd                      0      0.00%      0.41% # attempts to use FU when none available
system.cpu.iq.fu_full::SimdAddAcc                   0      0.00%      0.41% # attempts to use FU when none available
system.cpu.iq.fu_full::SimdAlu                      9      0.00%      0.41% # attempts to use FU when none available
system.cpu.iq.fu_full::SimdCmp                      0      0.00%      0.41% # attempts to use FU when none available
system.cpu.iq.fu_full::SimdCvt                      0      0.00%      0.41% # attempts to use FU when none available
system.cpu.iq.fu_full::SimdMisc                     1      0.00%      0.41% # attempts to use FU when none available
system.cpu.iq.fu_full::SimdMult                     0      0.00%      0.41% # attempts to use FU when none available
system.cpu.iq.fu_full::SimdMultAcc                  0      0.00%      0.41% # attempts to use FU when none available
system.cpu.iq.fu_full::SimdShift                    0      0.00%      0.41% # attempts to use FU when none available
system.cpu.iq.fu_full::SimdShiftAcc                 0      0.00%      0.41% # attempts to use FU when none available
system.cpu.iq.fu_full::SimdDiv                      0      0.00%      0.41% # attempts to use FU when none available
system.cpu.iq.fu_full::SimdSqrt                     0      0.00%      0.41% # attempts to use FU when none available
system.cpu.iq.fu_full::SimdFloatAdd                 0      0.00%      0.41% # attempts to use FU when none available
system.cpu.iq.fu_full::SimdFloatAlu                 0      0.00%      0.41% # attempts to use FU when none available
system.cpu.iq.fu_full::SimdFloatCmp                 0      0.00%      0.41% # attempts to use FU when none available
system.cpu.iq.fu_full::SimdFloatCvt                 0      0.00%      0.41% # attempts to use FU when none available
system.cpu.iq.fu_full::SimdFloatDiv                 0      0.00%      0.41% # attempts to use FU when none available
system.cpu.iq.fu_full::SimdFloatMisc                0      0.00%      0.41% # attempts to use FU when none available
system.cpu.iq.fu_full::SimdFloatMult                0      0.00%      0.41% # attempts to use FU when none available
system.cpu.iq.fu_full::SimdFloatMultAcc             0      0.00%      0.41% # attempts to use FU when none available
system.cpu.iq.fu_full::SimdFloatSqrt                0      0.00%      0.41% # attempts to use FU when none available
system.cpu.iq.fu_full::SimdReduceAdd                0      0.00%      0.41% # attempts to use FU when none available
system.cpu.iq.fu_full::SimdReduceAlu                0      0.00%      0.41% # attempts to use FU when none available
system.cpu.iq.fu_full::SimdReduceCmp                0      0.00%      0.41% # attempts to use FU when none available
system.cpu.iq.fu_full::SimdFloatReduceAdd            0      0.00%      0.41% # attempts to use FU when none available
system.cpu.iq.fu_full::SimdFloatReduceCmp            0      0.00%      0.41% # attempts to use FU when none available
system.cpu.iq.fu_full::SimdAes                      0      0.00%      0.41% # attempts to use FU when none available
system.cpu.iq.fu_full::SimdAesMix                   0      0.00%      0.41% # attempts to use FU when none available
system.cpu.iq.fu_full::SimdSha1Hash                 0      0.00%      0.41% # attempts to use FU when none available
system.cpu.iq.fu_full::SimdSha1Hash2                0      0.00%      0.41% # attempts to use FU when none available
system.cpu.iq.fu_full::SimdSha256Hash               0      0.00%      0.41% # attempts to use FU when none available
system.cpu.iq.fu_full::SimdSha256Hash2              0      0.00%      0.41% # attempts to use FU when none available
system.cpu.iq.fu_full::SimdShaSigma2                0      0.00%      0.41% # attempts to use FU when none available
system.cpu.iq.fu_full::SimdShaSigma3                0      0.00%      0.41% # attempts to use FU when none available
system.cpu.iq.fu_full::SimdPredAlu                  0      0.00%      0.41% # attempts to use FU when none available
system.cpu.iq.fu_full::MemRead               15681608     87.78%     88.19% # attempts to use FU when none available
system.cpu.iq.fu_full::MemWrite               2108825     11.81%    100.00% # attempts to use FU when none available
system.cpu.iq.fu_full::FloatMemRead                 4      0.00%    100.00% # attempts to use FU when none available
system.cpu.iq.fu_full::FloatMemWrite               10      0.00%    100.00% # attempts to use FU when none available
system.cpu.iq.fu_full::IprAccess                    0      0.00%    100.00% # attempts to use FU when none available
system.cpu.iq.fu_full::InstPrefetch                 0      0.00%    100.00% # attempts to use FU when none available
system.cpu.iq.int_alu_accesses              202231944                       # Number of integer alu accesses
system.cpu.iq.int_inst_queue_reads          721557549                       # Number of integer instruction queue reads
system.cpu.iq.int_inst_queue_wakeup_accesses    179380245                       # Number of integer instruction queue wakeup accesses
system.cpu.iq.int_inst_queue_writes         479699163                       # Number of integer instruction queue writes
system.cpu.iq.iqInstsAdded                  247535145                       # Number of instructions added to the IQ (excludes non-spec)
system.cpu.iq.iqInstsIssued                 247352800                       # Number of instructions issued
system.cpu.iq.iqNonSpecInstsAdded             7865131                       # Number of non-speculative instructions added to the IQ
system.cpu.iq.iqSquashedInstsExamined       224299561                       # Number of squashed instructions iterated over during squash; mainly for profiling
system.cpu.iq.iqSquashedInstsIssued              1169                       # Number of squashed instructions issued
system.cpu.iq.iqSquashedNonSpecRemoved        7633801                       # Number of squashed non-spec instructions that were removed
system.cpu.iq.iqSquashedOperandsExamined     18575971                       # Number of squashed operands that are examined and possibly removed from graph
system.cpu.iq.issued_per_cycle::samples     208988500                       # Number of insts issued each cycle
system.cpu.iq.issued_per_cycle::mean         1.183571                       # Number of insts issued each cycle
system.cpu.iq.issued_per_cycle::stdev        2.384642                       # Number of insts issued each cycle
system.cpu.iq.issued_per_cycle::underflows            0      0.00%      0.00% # Number of insts issued each cycle
system.cpu.iq.issued_per_cycle::0           160071868     76.59%     76.59% # Number of insts issued each cycle
system.cpu.iq.issued_per_cycle::1             3685521      1.76%     78.36% # Number of insts issued each cycle
system.cpu.iq.issued_per_cycle::2             4107013      1.97%     80.32% # Number of insts issued each cycle
system.cpu.iq.issued_per_cycle::3             4968589      2.38%     82.70% # Number of insts issued each cycle
system.cpu.iq.issued_per_cycle::4             5468583      2.62%     85.32% # Number of insts issued each cycle
system.cpu.iq.issued_per_cycle::5             8396046      4.02%     89.33% # Number of insts issued each cycle
system.cpu.iq.issued_per_cycle::6             8421015      4.03%     93.36% # Number of insts issued each cycle
system.cpu.iq.issued_per_cycle::7             4792086      2.29%     95.66% # Number of insts issued each cycle
system.cpu.iq.issued_per_cycle::8             9077779      4.34%    100.00% # Number of insts issued each cycle
system.cpu.iq.issued_per_cycle::overflows            0      0.00%    100.00% # Number of insts issued each cycle
system.cpu.iq.issued_per_cycle::min_value            0                       # Number of insts issued each cycle
system.cpu.iq.issued_per_cycle::max_value            8                       # Number of insts issued each cycle
system.cpu.iq.issued_per_cycle::total       208988500                       # Number of insts issued each cycle
system.cpu.iq.rate                           1.183241                       # Inst issue rate
system.cpu.iq.vec_alu_accesses                      0                       # Number of vector alu accesses
system.cpu.iq.vec_inst_queue_reads                  0                       # Number of vector instruction queue reads
system.cpu.iq.vec_inst_queue_wakeup_accesses            0                       # Number of vector instruction queue wakeup accesses
system.cpu.iq.vec_inst_queue_writes                 0                       # Number of vector instruction queue writes
system.cpu.loadValPred.constant_verification_unit.constLoadHits      1602391                       # Number of loads marked constant that hit in the CVU CAM
system.cpu.loadValPred.constant_verification_unit.constLoadMisses      1974409                       # Number of loads marked constant that missed in the CVU CAM
system.cpu.loadValPred.constant_verification_unit.numCAMReplacements      1816796                       # Number of CVU CAM entries replaced
system.cpu.loadValPred.constant_verification_unit.numLoadAccesses      3576800                       # Number of loads marked constant which accessed the CVU
system.cpu.loadValPred.constant_verification_unit.numStoreAccesses     65537589                       # Number of store instructions which accessed the CVU
system.cpu.loadValPred.constant_verification_unit.numStoreHits        68455                       # Number of stores that hit in the CVU CAM
system.cpu.loadValPred.constant_verification_unit.numStoreMisses     65469134                       # Number of stores that missed in the CVU CAM
system.cpu.loadValPred.numConstLoads          1789220                       # Number of loads classified as constant
system.cpu.loadValPred.numConstLoadsCorrect      1602391                       # Number of constant loads correctly predicted
system.cpu.loadValPred.numConstLoadsMispredicted      1974409                       # Number of constant loads incorrectly predicted
system.cpu.loadValPred.numConstValOne          123732                       # Number of constant loads with value 1
system.cpu.loadValPred.numConstValZero         270483                       # Number of constant loads with value 0
system.cpu.loadValPred.numPredictableLoads      2524579                       # Number of loads classified as predictable
system.cpu.loadValPred.numPredictableLoadsCorrect      2283717                       # Number of loads correctly classified as predictable
system.cpu.loadValPred.numPredictableLoadsIncorrect       184483                       # Number of loads incorrectly classified as predictable
system.cpu.loadValPred.totalLoads            68254740                       # Total loads processed by the Load value predictor
system.cpu.memDep0.conflictingLoads            232449                       # Number of conflicting loads.
system.cpu.memDep0.conflictingStores           193668                       # Number of conflicting stores.
system.cpu.memDep0.insertedLoads             68254740                       # Number of loads inserted to the mem dependence unit.
system.cpu.memDep0.insertedStores            67109212                       # Number of stores inserted to the mem dependence unit.
system.cpu.misc_regfile_reads               149845593                       # number of misc regfile reads
system.cpu.misc_regfile_writes                      1                       # number of misc regfile writes
system.cpu.numCycles                        209046828                       # number of cpu cycles simulated
system.cpu.numWorkItemsCompleted                    0                       # number of work items this cpu completed
system.cpu.numWorkItemsStarted                      0                       # number of work items this cpu started
system.cpu.timesIdled                             304                       # Number of times that the entire CPU went into an idle state and unscheduled itself
system.cpu.workload.numSyscalls                   418                       # Number of system calls
system.membus.snoop_filter.hit_multi_requests            0                       # Number of requests hitting in the snoop filter with multiple (>1) holders of the requested data.
system.membus.snoop_filter.hit_multi_snoops            0                       # Number of snoops hitting in the snoop filter with multiple (>1) holders of the requested data.
system.membus.snoop_filter.hit_single_requests       749017                       # Number of requests hitting in the snoop filter with a single holder of the requested data.
system.membus.snoop_filter.hit_single_snoops            0                       # Number of snoops hitting in the snoop filter with a single holder of the requested data.
system.membus.snoop_filter.tot_requests       1502693                       # Total number of requests made to the snoop filter.
system.membus.snoop_filter.tot_snoops               0                       # Total number of snoops made to the snoop filter.
system.tol2bus.snoop_filter.hit_multi_requests            5                       # Number of requests hitting in the snoop filter with multiple (>1) holders of the requested data.
system.tol2bus.snoop_filter.hit_multi_snoops            0                       # Number of snoops hitting in the snoop filter with multiple (>1) holders of the requested data.
system.tol2bus.snoop_filter.hit_single_requests       752727                       # Number of requests hitting in the snoop filter with a single holder of the requested data.
system.tol2bus.snoop_filter.hit_single_snoops          594                       # Number of snoops hitting in the snoop filter with a single holder of the requested data.
system.tol2bus.snoop_filter.tot_requests      1506419                       # Total number of requests made to the snoop filter.
system.tol2bus.snoop_filter.tot_snoops            594                       # Total number of snoops made to the snoop filter.
system.membus.trans_dist::ReadResp             319372                       # Transaction distribution
system.membus.trans_dist::WritebackDirty       440403                       # Transaction distribution
system.membus.trans_dist::CleanEvict           308614                       # Transaction distribution
system.membus.trans_dist::ReadExReq            434304                       # Transaction distribution
system.membus.trans_dist::ReadExResp           434304                       # Transaction distribution
system.membus.trans_dist::ReadSharedReq        319372                       # Transaction distribution
system.membus.pkt_count_system.l2.mem_side_port::system.mem_ctrls.port      2256369                       # Packet count per connected requestor and responder (bytes)
system.membus.pkt_count_system.l2.mem_side_port::total      2256369                       # Packet count per connected requestor and responder (bytes)
system.membus.pkt_count::total                2256369                       # Packet count per connected requestor and responder (bytes)
system.membus.pkt_size_system.l2.mem_side_port::system.mem_ctrls.port     76421056                       # Cumulative packet size per connected requestor and responder (bytes)
system.membus.pkt_size_system.l2.mem_side_port::total     76421056                       # Cumulative packet size per connected requestor and responder (bytes)
system.membus.pkt_size::total                76421056                       # Cumulative packet size per connected requestor and responder (bytes)
system.membus.snoops                                0                       # Total snoops (count)
system.membus.snoopTraffic                          0                       # Total snoop traffic (bytes)
system.membus.snoop_fanout::samples            753676                       # Request fanout histogram
system.membus.snoop_fanout::mean                    0                       # Request fanout histogram
system.membus.snoop_fanout::stdev                   0                       # Request fanout histogram
system.membus.snoop_fanout::underflows              0      0.00%      0.00% # Request fanout histogram
system.membus.snoop_fanout::0                  753676    100.00%    100.00% # Request fanout histogram
system.membus.snoop_fanout::1                       0      0.00%    100.00% # Request fanout histogram
system.membus.snoop_fanout::overflows               0      0.00%    100.00% # Request fanout histogram
system.membus.snoop_fanout::min_value               0                       # Request fanout histogram
system.membus.snoop_fanout::max_value               0                       # Request fanout histogram
system.membus.snoop_fanout::total              753676                       # Request fanout histogram
system.membus.reqLayer2.occupancy          3876896142                       # Layer occupancy (ticks)
system.membus.reqLayer2.utilization               6.7                       # Layer utilization (%)
system.membus.respLayer1.occupancy         3975150252                       # Layer occupancy (ticks)
system.membus.respLayer1.utilization              6.8                       # Layer utilization (%)
system.membus.power_state.pwrStateResidencyTicks::UNDEFINED  58115017906                       # Cumulative time (in ticks) in various power states
system.tol2bus.trans_dist::ReadResp            319379                       # Transaction distribution
system.tol2bus.trans_dist::WritebackDirty       882659                       # Transaction distribution
system.tol2bus.trans_dist::WritebackClean           45                       # Transaction distribution
system.tol2bus.trans_dist::CleanEvict          619634                       # Transaction distribution
system.tol2bus.trans_dist::ReadExReq           434313                       # Transaction distribution
system.tol2bus.trans_dist::ReadExResp          434313                       # Transaction distribution
system.tol2bus.trans_dist::ReadCleanReq           498                       # Transaction distribution
system.tol2bus.trans_dist::ReadSharedReq       318881                       # Transaction distribution
system.tol2bus.pkt_count_system.cpu.icache.mem_side_port::system.l2.cpu_side_port         1041                       # Packet count per connected requestor and responder (bytes)
system.tol2bus.pkt_count_system.cpu.dcache.mem_side_port::system.l2.cpu_side_port      2259070                       # Packet count per connected requestor and responder (bytes)
system.tol2bus.pkt_count::total               2260111                       # Packet count per connected requestor and responder (bytes)
system.tol2bus.pkt_size_system.cpu.icache.mem_side_port::system.l2.cpu_side_port        34752                       # Cumulative packet size per connected requestor and responder (bytes)
system.tol2bus.pkt_size_system.cpu.dcache.mem_side_port::system.l2.cpu_side_port     76508800                       # Cumulative packet size per connected requestor and responder (bytes)
system.tol2bus.pkt_size::total               76543552                       # Cumulative packet size per connected requestor and responder (bytes)
system.tol2bus.snoops                          749611                       # Total snoops (count)
system.tol2bus.snoopTraffic                  28185792                       # Total snoop traffic (bytes)
system.tol2bus.snoop_fanout::samples          1503303                       # Request fanout histogram
system.tol2bus.snoop_fanout::mean            0.000398                       # Request fanout histogram
system.tol2bus.snoop_fanout::stdev           0.019957                       # Request fanout histogram
system.tol2bus.snoop_fanout::underflows             0      0.00%      0.00% # Request fanout histogram
system.tol2bus.snoop_fanout::0                1502704     99.96%     99.96% # Request fanout histogram
system.tol2bus.snoop_fanout::1                    599      0.04%    100.00% # Request fanout histogram
system.tol2bus.snoop_fanout::2                      0      0.00%    100.00% # Request fanout histogram
system.tol2bus.snoop_fanout::3                      0      0.00%    100.00% # Request fanout histogram
system.tol2bus.snoop_fanout::4                      0      0.00%    100.00% # Request fanout histogram
system.tol2bus.snoop_fanout::overflows              0      0.00%    100.00% # Request fanout histogram
system.tol2bus.snoop_fanout::min_value              0                       # Request fanout histogram
system.tol2bus.snoop_fanout::max_value              1                       # Request fanout histogram
system.tol2bus.snoop_fanout::total            1503303                       # Request fanout histogram
system.tol2bus.reqLayer0.occupancy          664703838                       # Layer occupancy (ticks)
system.tol2bus.reqLayer0.utilization              1.1                       # Layer utilization (%)
system.tol2bus.respLayer1.occupancy         628164073                       # Layer occupancy (ticks)
system.tol2bus.respLayer1.utilization             1.1                       # Layer utilization (%)
system.tol2bus.respLayer0.occupancy            415332                       # Layer occupancy (ticks)
system.tol2bus.respLayer0.utilization             0.0                       # Layer utilization (%)
system.tol2bus.power_state.pwrStateResidencyTicks::UNDEFINED  58115017906                       # Cumulative time (in ticks) in various power states
system.voltage_domain.voltage                       1                       # Voltage in Volts
system.clk_domain.clock                          1000                       # Clock period in ticks
system.l2.demand_hits::.cpu.inst                    3                       # number of demand (read+write) hits
system.l2.demand_hits::.cpu.data                   12                       # number of demand (read+write) hits
system.l2.demand_hits::total                       15                       # number of demand (read+write) hits
system.l2.overall_hits::.cpu.inst                   3                       # number of overall hits
system.l2.overall_hits::.cpu.data                  12                       # number of overall hits
system.l2.overall_hits::total                      15                       # number of overall hits
system.l2.demand_misses::.cpu.inst                495                       # number of demand (read+write) misses
system.l2.demand_misses::.cpu.data             753182                       # number of demand (read+write) misses
system.l2.demand_misses::total                 753677                       # number of demand (read+write) misses
system.l2.overall_misses::.cpu.inst               495                       # number of overall misses
system.l2.overall_misses::.cpu.data            753182                       # number of overall misses
system.l2.overall_misses::total                753677                       # number of overall misses
system.l2.demand_miss_latency::.cpu.inst     35038286                       # number of demand (read+write) miss cycles
system.l2.demand_miss_latency::.cpu.data  52568081404                       # number of demand (read+write) miss cycles
system.l2.demand_miss_latency::total      52603119690                       # number of demand (read+write) miss cycles
system.l2.overall_miss_latency::.cpu.inst     35038286                       # number of overall miss cycles
system.l2.overall_miss_latency::.cpu.data  52568081404                       # number of overall miss cycles
system.l2.overall_miss_latency::total     52603119690                       # number of overall miss cycles
system.l2.demand_accesses::.cpu.inst              498                       # number of demand (read+write) accesses
system.l2.demand_accesses::.cpu.data           753194                       # number of demand (read+write) accesses
system.l2.demand_accesses::total               753692                       # number of demand (read+write) accesses
system.l2.overall_accesses::.cpu.inst             498                       # number of overall (read+write) accesses
system.l2.overall_accesses::.cpu.data          753194                       # number of overall (read+write) accesses
system.l2.overall_accesses::total              753692                       # number of overall (read+write) accesses
system.l2.demand_miss_rate::.cpu.inst        0.993976                       # miss rate for demand accesses
system.l2.demand_miss_rate::.cpu.data        0.999984                       # miss rate for demand accesses
system.l2.demand_miss_rate::total            0.999980                       # miss rate for demand accesses
system.l2.overall_miss_rate::.cpu.inst       0.993976                       # miss rate for overall accesses
system.l2.overall_miss_rate::.cpu.data       0.999984                       # miss rate for overall accesses
system.l2.overall_miss_rate::total           0.999980                       # miss rate for overall accesses
system.l2.demand_avg_miss_latency::.cpu.inst 70784.416162                       # average overall miss latency
system.l2.demand_avg_miss_latency::.cpu.data 69794.659729                       # average overall miss latency
system.l2.demand_avg_miss_latency::total 69795.309781                       # average overall miss latency
system.l2.overall_avg_miss_latency::.cpu.inst 70784.416162                       # average overall miss latency
system.l2.overall_avg_miss_latency::.cpu.data 69794.659729                       # average overall miss latency
system.l2.overall_avg_miss_latency::total 69795.309781                       # average overall miss latency
system.l2.blocked_cycles::no_mshrs                  0                       # number of cycles access was blocked
system.l2.blocked_cycles::no_targets                0                       # number of cycles access was blocked
system.l2.blocked::no_mshrs                         0                       # number of cycles access was blocked
system.l2.blocked::no_targets                       0                       # number of cycles access was blocked
system.l2.avg_blocked_cycles::no_mshrs            nan                       # average number of cycles each access was blocked
system.l2.avg_blocked_cycles::no_targets          nan                       # average number of cycles each access was blocked
system.l2.writebacks::.writebacks              440403                       # number of writebacks
system.l2.writebacks::total                    440403                       # number of writebacks
system.l2.demand_mshr_hits::.cpu.data               1                       # number of demand (read+write) MSHR hits
system.l2.demand_mshr_hits::total                   1                       # number of demand (read+write) MSHR hits
system.l2.overall_mshr_hits::.cpu.data              1                       # number of overall MSHR hits
system.l2.overall_mshr_hits::total                  1                       # number of overall MSHR hits
system.l2.demand_mshr_misses::.cpu.inst           495                       # number of demand (read+write) MSHR misses
system.l2.demand_mshr_misses::.cpu.data        753181                       # number of demand (read+write) MSHR misses
system.l2.demand_mshr_misses::total            753676                       # number of demand (read+write) MSHR misses
system.l2.overall_mshr_misses::.cpu.inst          495                       # number of overall MSHR misses
system.l2.overall_mshr_misses::.cpu.data       753181                       # number of overall MSHR misses
system.l2.overall_mshr_misses::total           753676                       # number of overall MSHR misses
system.l2.demand_mshr_miss_latency::.cpu.inst     32218136                       # number of demand (read+write) MSHR miss cycles
system.l2.demand_mshr_miss_latency::.cpu.data  48278545844                       # number of demand (read+write) MSHR miss cycles
system.l2.demand_mshr_miss_latency::total  48310763980                       # number of demand (read+write) MSHR miss cycles
system.l2.overall_mshr_miss_latency::.cpu.inst     32218136                       # number of overall MSHR miss cycles
system.l2.overall_mshr_miss_latency::.cpu.data  48278545844                       # number of overall MSHR miss cycles
system.l2.overall_mshr_miss_latency::total  48310763980                       # number of overall MSHR miss cycles
system.l2.demand_mshr_miss_rate::.cpu.inst     0.993976                       # mshr miss rate for demand accesses
system.l2.demand_mshr_miss_rate::.cpu.data     0.999983                       # mshr miss rate for demand accesses
system.l2.demand_mshr_miss_rate::total       0.999979                       # mshr miss rate for demand accesses
system.l2.overall_mshr_miss_rate::.cpu.inst     0.993976                       # mshr miss rate for overall accesses
system.l2.overall_mshr_miss_rate::.cpu.data     0.999983                       # mshr miss rate for overall accesses
system.l2.overall_mshr_miss_rate::total      0.999979                       # mshr miss rate for overall accesses
system.l2.demand_avg_mshr_miss_latency::.cpu.inst 65087.143434                       # average overall mshr miss latency
system.l2.demand_avg_mshr_miss_latency::.cpu.data 64099.526998                       # average overall mshr miss latency
system.l2.demand_avg_mshr_miss_latency::total 64100.175646                       # average overall mshr miss latency
system.l2.overall_avg_mshr_miss_latency::.cpu.inst 65087.143434                       # average overall mshr miss latency
system.l2.overall_avg_mshr_miss_latency::.cpu.data 64099.526998                       # average overall mshr miss latency
system.l2.overall_avg_mshr_miss_latency::total 64100.175646                       # average overall mshr miss latency
system.l2.replacements                         749611                       # number of replacements
system.l2.WritebackDirty_hits::.writebacks       442256                       # number of WritebackDirty hits
system.l2.WritebackDirty_hits::total           442256                       # number of WritebackDirty hits
system.l2.WritebackDirty_accesses::.writebacks       442256                       # number of WritebackDirty accesses(hits+misses)
system.l2.WritebackDirty_accesses::total       442256                       # number of WritebackDirty accesses(hits+misses)
system.l2.WritebackClean_hits::.writebacks           45                       # number of WritebackClean hits
system.l2.WritebackClean_hits::total               45                       # number of WritebackClean hits
system.l2.WritebackClean_accesses::.writebacks           45                       # number of WritebackClean accesses(hits+misses)
system.l2.WritebackClean_accesses::total           45                       # number of WritebackClean accesses(hits+misses)
system.l2.ReadExReq_hits::.cpu.data                 9                       # number of ReadExReq hits
system.l2.ReadExReq_hits::total                     9                       # number of ReadExReq hits
system.l2.ReadExReq_misses::.cpu.data          434304                       # number of ReadExReq misses
system.l2.ReadExReq_misses::total              434304                       # number of ReadExReq misses
system.l2.ReadExReq_miss_latency::.cpu.data  30553089878                       # number of ReadExReq miss cycles
system.l2.ReadExReq_miss_latency::total   30553089878                       # number of ReadExReq miss cycles
system.l2.ReadExReq_accesses::.cpu.data        434313                       # number of ReadExReq accesses(hits+misses)
system.l2.ReadExReq_accesses::total            434313                       # number of ReadExReq accesses(hits+misses)
system.l2.ReadExReq_miss_rate::.cpu.data     0.999979                       # miss rate for ReadExReq accesses
system.l2.ReadExReq_miss_rate::total         0.999979                       # miss rate for ReadExReq accesses
system.l2.ReadExReq_avg_miss_latency::.cpu.data 70349.547501                       # average ReadExReq miss latency
system.l2.ReadExReq_avg_miss_latency::total 70349.547501                       # average ReadExReq miss latency
system.l2.ReadExReq_mshr_misses::.cpu.data       434304                       # number of ReadExReq MSHR misses
system.l2.ReadExReq_mshr_misses::total         434304                       # number of ReadExReq MSHR misses
system.l2.ReadExReq_mshr_miss_latency::.cpu.data  28078544612                       # number of ReadExReq MSHR miss cycles
system.l2.ReadExReq_mshr_miss_latency::total  28078544612                       # number of ReadExReq MSHR miss cycles
system.l2.ReadExReq_mshr_miss_rate::.cpu.data     0.999979                       # mshr miss rate for ReadExReq accesses
system.l2.ReadExReq_mshr_miss_rate::total     0.999979                       # mshr miss rate for ReadExReq accesses
system.l2.ReadExReq_avg_mshr_miss_latency::.cpu.data 64651.821333                       # average ReadExReq mshr miss latency
system.l2.ReadExReq_avg_mshr_miss_latency::total 64651.821333                       # average ReadExReq mshr miss latency
system.l2.ReadCleanReq_hits::.cpu.inst              3                       # number of ReadCleanReq hits
system.l2.ReadCleanReq_hits::total                  3                       # number of ReadCleanReq hits
system.l2.ReadCleanReq_misses::.cpu.inst          495                       # number of ReadCleanReq misses
system.l2.ReadCleanReq_misses::total              495                       # number of ReadCleanReq misses
system.l2.ReadCleanReq_miss_latency::.cpu.inst     35038286                       # number of ReadCleanReq miss cycles
system.l2.ReadCleanReq_miss_latency::total     35038286                       # number of ReadCleanReq miss cycles
system.l2.ReadCleanReq_accesses::.cpu.inst          498                       # number of ReadCleanReq accesses(hits+misses)
system.l2.ReadCleanReq_accesses::total            498                       # number of ReadCleanReq accesses(hits+misses)
system.l2.ReadCleanReq_miss_rate::.cpu.inst     0.993976                       # miss rate for ReadCleanReq accesses
system.l2.ReadCleanReq_miss_rate::total      0.993976                       # miss rate for ReadCleanReq accesses
system.l2.ReadCleanReq_avg_miss_latency::.cpu.inst 70784.416162                       # average ReadCleanReq miss latency
system.l2.ReadCleanReq_avg_miss_latency::total 70784.416162                       # average ReadCleanReq miss latency
system.l2.ReadCleanReq_mshr_misses::.cpu.inst          495                       # number of ReadCleanReq MSHR misses
system.l2.ReadCleanReq_mshr_misses::total          495                       # number of ReadCleanReq MSHR misses
system.l2.ReadCleanReq_mshr_miss_latency::.cpu.inst     32218136                       # number of ReadCleanReq MSHR miss cycles
system.l2.ReadCleanReq_mshr_miss_latency::total     32218136                       # number of ReadCleanReq MSHR miss cycles
system.l2.ReadCleanReq_mshr_miss_rate::.cpu.inst     0.993976                       # mshr miss rate for ReadCleanReq accesses
system.l2.ReadCleanReq_mshr_miss_rate::total     0.993976                       # mshr miss rate for ReadCleanReq accesses
system.l2.ReadCleanReq_avg_mshr_miss_latency::.cpu.inst 65087.143434                       # average ReadCleanReq mshr miss latency
system.l2.ReadCleanReq_avg_mshr_miss_latency::total 65087.143434                       # average ReadCleanReq mshr miss latency
system.l2.ReadSharedReq_hits::.cpu.data             3                       # number of ReadSharedReq hits
system.l2.ReadSharedReq_hits::total                 3                       # number of ReadSharedReq hits
system.l2.ReadSharedReq_misses::.cpu.data       318878                       # number of ReadSharedReq misses
system.l2.ReadSharedReq_misses::total          318878                       # number of ReadSharedReq misses
system.l2.ReadSharedReq_miss_latency::.cpu.data  22014991526                       # number of ReadSharedReq miss cycles
system.l2.ReadSharedReq_miss_latency::total  22014991526                       # number of ReadSharedReq miss cycles
system.l2.ReadSharedReq_accesses::.cpu.data       318881                       # number of ReadSharedReq accesses(hits+misses)
system.l2.ReadSharedReq_accesses::total        318881                       # number of ReadSharedReq accesses(hits+misses)
system.l2.ReadSharedReq_miss_rate::.cpu.data     0.999991                       # miss rate for ReadSharedReq accesses
system.l2.ReadSharedReq_miss_rate::total     0.999991                       # miss rate for ReadSharedReq accesses
system.l2.ReadSharedReq_avg_miss_latency::.cpu.data 69038.916219                       # average ReadSharedReq miss latency
system.l2.ReadSharedReq_avg_miss_latency::total 69038.916219                       # average ReadSharedReq miss latency
system.l2.ReadSharedReq_mshr_hits::.cpu.data            1                       # number of ReadSharedReq MSHR hits
system.l2.ReadSharedReq_mshr_hits::total            1                       # number of ReadSharedReq MSHR hits
system.l2.ReadSharedReq_mshr_misses::.cpu.data       318877                       # number of ReadSharedReq MSHR misses
system.l2.ReadSharedReq_mshr_misses::total       318877                       # number of ReadSharedReq MSHR misses
system.l2.ReadSharedReq_mshr_miss_latency::.cpu.data  20200001232                       # number of ReadSharedReq MSHR miss cycles
system.l2.ReadSharedReq_mshr_miss_latency::total  20200001232                       # number of ReadSharedReq MSHR miss cycles
system.l2.ReadSharedReq_mshr_miss_rate::.cpu.data     0.999987                       # mshr miss rate for ReadSharedReq accesses
system.l2.ReadSharedReq_mshr_miss_rate::total     0.999987                       # mshr miss rate for ReadSharedReq accesses
system.l2.ReadSharedReq_avg_mshr_miss_latency::.cpu.data 63347.313328                       # average ReadSharedReq mshr miss latency
system.l2.ReadSharedReq_avg_mshr_miss_latency::total 63347.313328                       # average ReadSharedReq mshr miss latency
system.l2.power_state.pwrStateResidencyTicks::UNDEFINED  58115017906                       # Cumulative time (in ticks) in various power states
system.l2.tags.tagsinuse                  3218.520462                       # Cycle average of tags in use
system.l2.tags.total_refs                     1506413                       # Total number of references to valid blocks.
system.l2.tags.sampled_refs                    753707                       # Sample count of references to valid blocks.
system.l2.tags.avg_refs                      1.998672                       # Average number of references to valid blocks.
system.l2.tags.warmup_cycle                     77000                       # Cycle when the warmup percentage was hit.
system.l2.tags.occ_blocks::.writebacks       0.307943                       # Average occupied blocks per requestor
system.l2.tags.occ_blocks::.cpu.inst        83.417814                       # Average occupied blocks per requestor
system.l2.tags.occ_blocks::.cpu.data      3134.794705                       # Average occupied blocks per requestor
system.l2.tags.occ_percent::.writebacks      0.000075                       # Average percentage of cache occupancy
system.l2.tags.occ_percent::.cpu.inst        0.020366                       # Average percentage of cache occupancy
system.l2.tags.occ_percent::.cpu.data        0.765331                       # Average percentage of cache occupancy
system.l2.tags.occ_percent::total            0.785772                       # Average percentage of cache occupancy
system.l2.tags.occ_task_id_blocks::1024          4096                       # Occupied blocks per task id
system.l2.tags.age_task_id_blocks_1024::0           25                       # Occupied blocks per task id
system.l2.tags.age_task_id_blocks_1024::1          450                       # Occupied blocks per task id
system.l2.tags.age_task_id_blocks_1024::2         3620                       # Occupied blocks per task id
system.l2.tags.age_task_id_blocks_1024::3            1                       # Occupied blocks per task id
system.l2.tags.occ_task_id_percent::1024            1                       # Percentage of cache occupancy per task id
system.l2.tags.tag_accesses                  12805019                       # Number of tag accesses
system.l2.tags.data_accesses                 12805019                       # Number of data accesses
system.l2.tags.power_state.pwrStateResidencyTicks::UNDEFINED  58115017906                       # Cumulative time (in ticks) in various power states
system.cpu_voltage_domain.voltage                   1                       # Voltage in Volts
system.mem_ctrls.avgPriority_.writebacks::samples    440403.00                       # Average QoS priority value for accepted requests
system.mem_ctrls.avgPriority_.cpu.inst::samples       495.00                       # Average QoS priority value for accepted requests
system.mem_ctrls.avgPriority_.cpu.data::samples    753181.00                       # Average QoS priority value for accepted requests
system.mem_ctrls.priorityMinLatency      0.000000018750                       # per QoS priority minimum request to response latency (s)
system.mem_ctrls.priorityMaxLatency      0.001027900804                       # per QoS priority maximum request to response latency (s)
system.mem_ctrls.numReadWriteTurnArounds        27515                       # Number of turnarounds from READ to WRITE
system.mem_ctrls.numWriteReadTurnArounds        27515                       # Number of turnarounds from WRITE to READ
system.mem_ctrls.numStayReadState             1928111                       # Number of times bus staying in READ state
system.mem_ctrls.numStayWriteState             413401                       # Number of times bus staying in WRITE state
system.mem_ctrls.readReqs                      753676                       # Number of read requests accepted
system.mem_ctrls.writeReqs                     440403                       # Number of write requests accepted
system.mem_ctrls.readBursts                    753676                       # Number of controller read bursts, including those serviced by the write queue
system.mem_ctrls.writeBursts                   440403                       # Number of controller write bursts, including those merged in the write queue
system.mem_ctrls.servicedByWrQ                      0                       # Number of controller read bursts serviced by the write queue
system.mem_ctrls.mergedWrBursts                     0                       # Number of controller write bursts merged with an existing one
system.mem_ctrls.neitherReadNorWriteReqs            0                       # Number of requests that are neither read nor write
system.mem_ctrls.avgRdQLen                       1.06                       # Average read queue length when enqueuing
system.mem_ctrls.avgWrQLen                      25.75                       # Average write queue length when enqueuing
system.mem_ctrls.numRdRetry                         0                       # Number of times read queue was full causing retry
system.mem_ctrls.numWrRetry                         0                       # Number of times write queue was full causing retry
system.mem_ctrls.readPktSize::0                     0                       # Read request sizes (log2)
system.mem_ctrls.readPktSize::1                     0                       # Read request sizes (log2)
system.mem_ctrls.readPktSize::2                     0                       # Read request sizes (log2)
system.mem_ctrls.readPktSize::3                     0                       # Read request sizes (log2)
system.mem_ctrls.readPktSize::4                     0                       # Read request sizes (log2)
system.mem_ctrls.readPktSize::5                     0                       # Read request sizes (log2)
system.mem_ctrls.readPktSize::6                753676                       # Read request sizes (log2)
system.mem_ctrls.writePktSize::0                    0                       # Write request sizes (log2)
system.mem_ctrls.writePktSize::1                    0                       # Write request sizes (log2)
system.mem_ctrls.writePktSize::2                    0                       # Write request sizes (log2)
system.mem_ctrls.writePktSize::3                    0                       # Write request sizes (log2)
system.mem_ctrls.writePktSize::4                    0                       # Write request sizes (log2)
system.mem_ctrls.writePktSize::5                    0                       # Write request sizes (log2)
system.mem_ctrls.writePktSize::6               440403                       # Write request sizes (log2)
system.mem_ctrls.rdQLenPdf::0                  721299                       # What read queue length does an incoming req see
system.mem_ctrls.rdQLenPdf::1                   24748                       # What read queue length does an incoming req see
system.mem_ctrls.rdQLenPdf::2                    4806                       # What read queue length does an incoming req see
system.mem_ctrls.rdQLenPdf::3                    2818                       # What read queue length does an incoming req see
system.mem_ctrls.rdQLenPdf::4                       5                       # What read queue length does an incoming req see
system.mem_ctrls.rdQLenPdf::5                       0                       # What read queue length does an incoming req see
system.mem_ctrls.rdQLenPdf::6                       0                       # What read queue length does an incoming req see
system.mem_ctrls.rdQLenPdf::7                       0                       # What read queue length does an incoming req see
system.mem_ctrls.rdQLenPdf::8                       0                       # What read queue length does an incoming req see
system.mem_ctrls.rdQLenPdf::9                       0                       # What read queue length does an incoming req see
system.mem_ctrls.rdQLenPdf::10                      0                       # What read queue length does an incoming req see
system.mem_ctrls.rdQLenPdf::11                      0                       # What read queue length does an incoming req see
system.mem_ctrls.rdQLenPdf::12                      0                       # What read queue length does an incoming req see
system.mem_ctrls.rdQLenPdf::13                      0                       # What read queue length does an incoming req see
system.mem_ctrls.rdQLenPdf::14                      0                       # What read queue length does an incoming req see
system.mem_ctrls.rdQLenPdf::15                      0                       # What read queue length does an incoming req see
system.mem_ctrls.rdQLenPdf::16                      0                       # What read queue length does an incoming req see
system.mem_ctrls.rdQLenPdf::17                      0                       # What read queue length does an incoming req see
system.mem_ctrls.rdQLenPdf::18                      0                       # What read queue length does an incoming req see
system.mem_ctrls.rdQLenPdf::19                      0                       # What read queue length does an incoming req see
system.mem_ctrls.rdQLenPdf::20                      0                       # What read queue length does an incoming req see
system.mem_ctrls.rdQLenPdf::21                      0                       # What read queue length does an incoming req see
system.mem_ctrls.rdQLenPdf::22                      0                       # What read queue length does an incoming req see
system.mem_ctrls.rdQLenPdf::23                      0                       # What read queue length does an incoming req see
system.mem_ctrls.rdQLenPdf::24                      0                       # What read queue length does an incoming req see
system.mem_ctrls.rdQLenPdf::25                      0                       # What read queue length does an incoming req see
system.mem_ctrls.rdQLenPdf::26                      0                       # What read queue length does an incoming req see
system.mem_ctrls.rdQLenPdf::27                      0                       # What read queue length does an incoming req see
system.mem_ctrls.rdQLenPdf::28                      0                       # What read queue length does an incoming req see
system.mem_ctrls.rdQLenPdf::29                      0                       # What read queue length does an incoming req see
system.mem_ctrls.rdQLenPdf::30                      0                       # What read queue length does an incoming req see
system.mem_ctrls.rdQLenPdf::31                      0                       # What read queue length does an incoming req see
system.mem_ctrls.wrQLenPdf::0                       1                       # What write queue length does an incoming req see
system.mem_ctrls.wrQLenPdf::1                       1                       # What write queue length does an incoming req see
system.mem_ctrls.wrQLenPdf::2                       1                       # What write queue length does an incoming req see
system.mem_ctrls.wrQLenPdf::3                       1                       # What write queue length does an incoming req see
system.mem_ctrls.wrQLenPdf::4                       1                       # What write queue length does an incoming req see
system.mem_ctrls.wrQLenPdf::5                       1                       # What write queue length does an incoming req see
system.mem_ctrls.wrQLenPdf::6                       1                       # What write queue length does an incoming req see
system.mem_ctrls.wrQLenPdf::7                       1                       # What write queue length does an incoming req see
system.mem_ctrls.wrQLenPdf::8                       1                       # What write queue length does an incoming req see
system.mem_ctrls.wrQLenPdf::9                       1                       # What write queue length does an incoming req see
system.mem_ctrls.wrQLenPdf::10                      1                       # What write queue length does an incoming req see
system.mem_ctrls.wrQLenPdf::11                      1                       # What write queue length does an incoming req see
system.mem_ctrls.wrQLenPdf::12                      1                       # What write queue length does an incoming req see
system.mem_ctrls.wrQLenPdf::13                      1                       # What write queue length does an incoming req see
system.mem_ctrls.wrQLenPdf::14                      1                       # What write queue length does an incoming req see
system.mem_ctrls.wrQLenPdf::15                     67                       # What write queue length does an incoming req see
system.mem_ctrls.wrQLenPdf::16                     70                       # What write queue length does an incoming req see
system.mem_ctrls.wrQLenPdf::17                  27067                       # What write queue length does an incoming req see
system.mem_ctrls.wrQLenPdf::18                  27411                       # What write queue length does an incoming req see
system.mem_ctrls.wrQLenPdf::19                  27478                       # What write queue length does an incoming req see
system.mem_ctrls.wrQLenPdf::20                  27527                       # What write queue length does an incoming req see
system.mem_ctrls.wrQLenPdf::21                  27519                       # What write queue length does an incoming req see
system.mem_ctrls.wrQLenPdf::22                  27525                       # What write queue length does an incoming req see
system.mem_ctrls.wrQLenPdf::23                  27540                       # What write queue length does an incoming req see
system.mem_ctrls.wrQLenPdf::24                  27520                       # What write queue length does an incoming req see
system.mem_ctrls.wrQLenPdf::25                  27523                       # What write queue length does an incoming req see
system.mem_ctrls.wrQLenPdf::26                  27557                       # What write queue length does an incoming req see
system.mem_ctrls.wrQLenPdf::27                  27552                       # What write queue length does an incoming req see
system.mem_ctrls.wrQLenPdf::28                  27570                       # What write queue length does an incoming req see
system.mem_ctrls.wrQLenPdf::29                  27825                       # What write queue length does an incoming req see
system.mem_ctrls.wrQLenPdf::30                  27528                       # What write queue length does an incoming req see
system.mem_ctrls.wrQLenPdf::31                  27585                       # What write queue length does an incoming req see
system.mem_ctrls.wrQLenPdf::32                  27517                       # What write queue length does an incoming req see
system.mem_ctrls.wrQLenPdf::33                      7                       # What write queue length does an incoming req see
system.mem_ctrls.wrQLenPdf::34                      0                       # What write queue length does an incoming req see
system.mem_ctrls.wrQLenPdf::35                      0                       # What write queue length does an incoming req see
system.mem_ctrls.wrQLenPdf::36                      0                       # What write queue length does an incoming req see
system.mem_ctrls.wrQLenPdf::37                      0                       # What write queue length does an incoming req see
system.mem_ctrls.wrQLenPdf::38                      0                       # What write queue length does an incoming req see
system.mem_ctrls.wrQLenPdf::39                      0                       # What write queue length does an incoming req see
system.mem_ctrls.wrQLenPdf::40                      0                       # What write queue length does an incoming req see
system.mem_ctrls.wrQLenPdf::41                      0                       # What write queue length does an incoming req see
system.mem_ctrls.wrQLenPdf::42                      0                       # What write queue length does an incoming req see
system.mem_ctrls.wrQLenPdf::43                      0                       # What write queue length does an incoming req see
system.mem_ctrls.wrQLenPdf::44                      0                       # What write queue length does an incoming req see
system.mem_ctrls.wrQLenPdf::45                      0                       # What write queue length does an incoming req see
system.mem_ctrls.wrQLenPdf::46                      0                       # What write queue length does an incoming req see
system.mem_ctrls.wrQLenPdf::47                      0                       # What write queue length does an incoming req see
system.mem_ctrls.wrQLenPdf::48                      0                       # What write queue length does an incoming req see
system.mem_ctrls.wrQLenPdf::49                      0                       # What write queue length does an incoming req see
system.mem_ctrls.wrQLenPdf::50                      0                       # What write queue length does an incoming req see
system.mem_ctrls.wrQLenPdf::51                      0                       # What write queue length does an incoming req see
system.mem_ctrls.wrQLenPdf::52                      0                       # What write queue length does an incoming req see
system.mem_ctrls.wrQLenPdf::53                      0                       # What write queue length does an incoming req see
system.mem_ctrls.wrQLenPdf::54                      0                       # What write queue length does an incoming req see
system.mem_ctrls.wrQLenPdf::55                      0                       # What write queue length does an incoming req see
system.mem_ctrls.wrQLenPdf::56                      0                       # What write queue length does an incoming req see
system.mem_ctrls.wrQLenPdf::57                      0                       # What write queue length does an incoming req see
system.mem_ctrls.wrQLenPdf::58                      0                       # What write queue length does an incoming req see
system.mem_ctrls.wrQLenPdf::59                      0                       # What write queue length does an incoming req see
system.mem_ctrls.wrQLenPdf::60                      0                       # What write queue length does an incoming req see
system.mem_ctrls.wrQLenPdf::61                      0                       # What write queue length does an incoming req see
system.mem_ctrls.wrQLenPdf::62                      0                       # What write queue length does an incoming req see
system.mem_ctrls.wrQLenPdf::63                      0                       # What write queue length does an incoming req see
system.mem_ctrls.rdPerTurnAround::samples        27515                       # Reads before turning the bus around for writes
system.mem_ctrls.rdPerTurnAround::mean      27.391423                       # Reads before turning the bus around for writes
system.mem_ctrls.rdPerTurnAround::gmean     23.688623                       # Reads before turning the bus around for writes
system.mem_ctrls.rdPerTurnAround::stdev     50.296238                       # Reads before turning the bus around for writes
system.mem_ctrls.rdPerTurnAround::0-63          27386     99.53%     99.53% # Reads before turning the bus around for writes
system.mem_ctrls.rdPerTurnAround::64-127           44      0.16%     99.69% # Reads before turning the bus around for writes
system.mem_ctrls.rdPerTurnAround::128-191            6      0.02%     99.71% # Reads before turning the bus around for writes
system.mem_ctrls.rdPerTurnAround::192-255            1      0.00%     99.72% # Reads before turning the bus around for writes
system.mem_ctrls.rdPerTurnAround::256-319           13      0.05%     99.76% # Reads before turning the bus around for writes
system.mem_ctrls.rdPerTurnAround::384-447            1      0.00%     99.77% # Reads before turning the bus around for writes
system.mem_ctrls.rdPerTurnAround::704-767            1      0.00%     99.77% # Reads before turning the bus around for writes
system.mem_ctrls.rdPerTurnAround::768-831            1      0.00%     99.77% # Reads before turning the bus around for writes
system.mem_ctrls.rdPerTurnAround::896-959           23      0.08%     99.86% # Reads before turning the bus around for writes
system.mem_ctrls.rdPerTurnAround::960-1023           12      0.04%     99.90% # Reads before turning the bus around for writes
system.mem_ctrls.rdPerTurnAround::1024-1087            7      0.03%     99.93% # Reads before turning the bus around for writes
system.mem_ctrls.rdPerTurnAround::1088-1151            3      0.01%     99.94% # Reads before turning the bus around for writes
system.mem_ctrls.rdPerTurnAround::1152-1215            4      0.01%     99.95% # Reads before turning the bus around for writes
system.mem_ctrls.rdPerTurnAround::1216-1279           12      0.04%    100.00% # Reads before turning the bus around for writes
system.mem_ctrls.rdPerTurnAround::1344-1407            1      0.00%    100.00% # Reads before turning the bus around for writes
system.mem_ctrls.rdPerTurnAround::total         27515                       # Reads before turning the bus around for writes
system.mem_ctrls.wrPerTurnAround::samples        27515                       # Writes before turning the bus around for reads
system.mem_ctrls.wrPerTurnAround::mean      16.005343                       # Writes before turning the bus around for reads
system.mem_ctrls.wrPerTurnAround::gmean     16.005014                       # Writes before turning the bus around for reads
system.mem_ctrls.wrPerTurnAround::stdev      0.107205                       # Writes before turning the bus around for reads
system.mem_ctrls.wrPerTurnAround::16            27444     99.74%     99.74% # Writes before turning the bus around for reads
system.mem_ctrls.wrPerTurnAround::17                2      0.01%     99.75% # Writes before turning the bus around for reads
system.mem_ctrls.wrPerTurnAround::18               64      0.23%     99.98% # Writes before turning the bus around for reads
system.mem_ctrls.wrPerTurnAround::19                3      0.01%     99.99% # Writes before turning the bus around for reads
system.mem_ctrls.wrPerTurnAround::20                2      0.01%    100.00% # Writes before turning the bus around for reads
system.mem_ctrls.wrPerTurnAround::total         27515                       # Writes before turning the bus around for reads
system.mem_ctrls.bytesReadWrQ                       0                       # Total number of bytes read from write queue
system.mem_ctrls.bytesReadSys                48235264                       # Total read bytes from the system interface side
system.mem_ctrls.bytesWrittenSys             28185792                       # Total written bytes from the system interface side
system.mem_ctrls.avgRdBWSys                    830.00                       # Average system read bandwidth in MiByte/s
system.mem_ctrls.avgWrBWSys                    485.00                       # Average system write bandwidth in MiByte/s
system.mem_ctrls.totGap                   58114861392                       # Total gap between requests
system.mem_ctrls.avgGap                      48669.19                       # Average gap between requests
system.mem_ctrls.requestorReadBytes::.cpu.inst        31680                       # Per-requestor bytes read from memory
system.mem_ctrls.requestorReadBytes::.cpu.data     48203584                       # Per-requestor bytes read from memory
system.mem_ctrls.requestorWriteBytes::.writebacks     28184768                       # Per-requestor bytes write to memory
system.mem_ctrls.requestorReadRate::.cpu.inst 545125.875229735509                       # Per-requestor bytes read from memory rate (Bytes/sec)
system.mem_ctrls.requestorReadRate::.cpu.data 829451417.841227054596                       # Per-requestor bytes read from memory rate (Bytes/sec)
system.mem_ctrls.requestorWriteRate::.writebacks 484982522.858176827431                       # Per-requestor bytes write to memory rate (Bytes/sec)
system.mem_ctrls.requestorReadAccesses::.cpu.inst          495                       # Per-requestor read serviced memory accesses
system.mem_ctrls.requestorReadAccesses::.cpu.data       753181                       # Per-requestor read serviced memory accesses
system.mem_ctrls.requestorWriteAccesses::.writebacks       440403                       # Per-requestor write serviced memory accesses
system.mem_ctrls.requestorReadTotalLat::.cpu.inst     14004118                       # Per-requestor read total memory access latency
system.mem_ctrls.requestorReadTotalLat::.cpu.data  20676941534                       # Per-requestor read total memory access latency
system.mem_ctrls.requestorWriteTotalLat::.writebacks 1436425957100                       # Per-requestor write total memory access latency
system.mem_ctrls.requestorReadAvgLat::.cpu.inst     28291.15                       # Per-requestor read average memory access latency
system.mem_ctrls.requestorReadAvgLat::.cpu.data     27452.82                       # Per-requestor read average memory access latency
system.mem_ctrls.requestorWriteAvgLat::.writebacks   3261617.10                       # Per-requestor write average memory access latency
system.mem_ctrls.dram.bytes_read::.cpu.inst        31680                       # Number of bytes read from this memory
system.mem_ctrls.dram.bytes_read::.cpu.data     48203584                       # Number of bytes read from this memory
system.mem_ctrls.dram.bytes_read::total      48235264                       # Number of bytes read from this memory
system.mem_ctrls.dram.bytes_inst_read::.cpu.inst        31680                       # Number of instructions bytes read from this memory
system.mem_ctrls.dram.bytes_inst_read::total        31680                       # Number of instructions bytes read from this memory
system.mem_ctrls.dram.bytes_written::.writebacks     28185792                       # Number of bytes written to this memory
system.mem_ctrls.dram.bytes_written::total     28185792                       # Number of bytes written to this memory
system.mem_ctrls.dram.num_reads::.cpu.inst          495                       # Number of read requests responded to by this memory
system.mem_ctrls.dram.num_reads::.cpu.data       753181                       # Number of read requests responded to by this memory
system.mem_ctrls.dram.num_reads::total         753676                       # Number of read requests responded to by this memory
system.mem_ctrls.dram.num_writes::.writebacks       440403                       # Number of write requests responded to by this memory
system.mem_ctrls.dram.num_writes::total        440403                       # Number of write requests responded to by this memory
system.mem_ctrls.dram.bw_read::.cpu.inst       545126                       # Total read bandwidth from this memory (bytes/s)
system.mem_ctrls.dram.bw_read::.cpu.data    829451418                       # Total read bandwidth from this memory (bytes/s)
system.mem_ctrls.dram.bw_read::total        829996544                       # Total read bandwidth from this memory (bytes/s)
system.mem_ctrls.dram.bw_inst_read::.cpu.inst       545126                       # Instruction read bandwidth from this memory (bytes/s)
system.mem_ctrls.dram.bw_inst_read::total       545126                       # Instruction read bandwidth from this memory (bytes/s)
system.mem_ctrls.dram.bw_write::.writebacks    485000143                       # Write bandwidth from this memory (bytes/s)
system.mem_ctrls.dram.bw_write::total       485000143                       # Write bandwidth from this memory (bytes/s)
[...]
system.cpu.dcache.WriteReq_mshr_miss_rate::.cpu.data     0.089977                       # mshr miss rate for WriteReq accesses
system.cpu.dcache.WriteReq_mshr_miss_rate::total     0.089977                       # mshr miss rate for WriteReq accesses
system.cpu.dcache.WriteReq_avg_mshr_miss_latency::.cpu.data 71276.586374                       # average WriteReq mshr miss latency
system.cpu.dcache.WriteReq_avg_mshr_miss_latency::total 71276.586374                       # average WriteReq mshr miss latency
system.cpu.dcache.SoftPFReq_hits::.cpu.data            2                       # number of SoftPFReq hits
system.cpu.dcache.SoftPFReq_hits::total             2                       # number of SoftPFReq hits
system.cpu.dcache.SoftPFReq_misses::.cpu.data        16384                       # number of SoftPFReq misses
system.cpu.dcache.SoftPFReq_misses::total        16384                       # number of SoftPFReq misses
system.cpu.dcache.SoftPFReq_accesses::.cpu.data        16386                       # number of SoftPFReq accesses(hits+misses)
system.cpu.dcache.SoftPFReq_accesses::total        16386                       # number of SoftPFReq accesses(hits+misses)
system.cpu.dcache.SoftPFReq_miss_rate::.cpu.data     0.999878                       # miss rate for SoftPFReq accesses
system.cpu.dcache.SoftPFReq_miss_rate::total     0.999878                       # miss rate for SoftPFReq accesses
system.cpu.dcache.SoftPFReq_mshr_misses::.cpu.data        16384                       # number of SoftPFReq MSHR misses
system.cpu.dcache.SoftPFReq_mshr_misses::total        16384                       # number of SoftPFReq MSHR misses
system.cpu.dcache.SoftPFReq_mshr_miss_latency::.cpu.data   1286888688                       # number of SoftPFReq MSHR miss cycles
system.cpu.dcache.SoftPFReq_mshr_miss_latency::total   1286888688                       # number of SoftPFReq MSHR miss cycles
system.cpu.dcache.SoftPFReq_mshr_miss_rate::.cpu.data     0.999878                       # mshr miss rate for SoftPFReq accesses
system.cpu.dcache.SoftPFReq_mshr_miss_rate::total     0.999878                       # mshr miss rate for SoftPFReq accesses
system.cpu.dcache.SoftPFReq_avg_mshr_miss_latency::.cpu.data 78545.452148                       # average SoftPFReq mshr miss latency
system.cpu.dcache.SoftPFReq_avg_mshr_miss_latency::total 78545.452148                       # average SoftPFReq mshr miss latency
system.cpu.dcache.power_state.pwrStateResidencyTicks::UNDEFINED  58115017906                       # Cumulative time (in ticks) in various power states
system.cpu.dcache.tags.tagsinuse           427.870944                       # Cycle average of tags in use
system.cpu.dcache.tags.total_refs            65540733                       # Total number of references to valid blocks.
system.cpu.dcache.tags.sampled_refs            753194                       # Sample count of references to valid blocks.
system.cpu.dcache.tags.avg_refs             87.017067                       # Average number of references to valid blocks.
system.cpu.dcache.tags.warmup_cycle            160962                       # Cycle when the warmup percentage was hit.
system.cpu.dcache.tags.occ_blocks::.cpu.data   427.870944                       # Average occupied blocks per requestor
system.cpu.dcache.tags.occ_percent::.cpu.data     0.835685                       # Average percentage of cache occupancy
system.cpu.dcache.tags.occ_percent::total     0.835685                       # Average percentage of cache occupancy
system.cpu.dcache.tags.occ_task_id_blocks::1024          512                       # Occupied blocks per task id
system.cpu.dcache.tags.age_task_id_blocks_1024::0           25                       # Occupied blocks per task id
system.cpu.dcache.tags.age_task_id_blocks_1024::1          377                       # Occupied blocks per task id
system.cpu.dcache.tags.age_task_id_blocks_1024::3          110                       # Occupied blocks per task id
system.cpu.dcache.tags.occ_task_id_percent::1024            1                       # Percentage of cache occupancy per task id
system.cpu.dcache.tags.tag_accesses         548122994                       # Number of tag accesses
system.cpu.dcache.tags.data_accesses        548122994                       # Number of data accesses
system.cpu.dcache.tags.power_state.pwrStateResidencyTicks::UNDEFINED  58115017906                       # Cumulative time (in ticks) in various power states
system.cpu.power_state.pwrStateResidencyTicks::ON  58115017906                       # Cumulative time (in ticks) in various power states
system.cpu.branchPred.lookups                 9543452                       # Number of BP lookups
system.cpu.branchPred.condPredicted           9124189                       # Number of conditional branches predicted
system.cpu.branchPred.condIncorrect             29871                       # Number of conditional branches incorrect
system.cpu.branchPred.BTBLookups              8252855                       # Number of BTB lookups
system.cpu.branchPred.BTBHits                 8251989                       # Number of BTB hits
system.cpu.branchPred.BTBHitPct             99.989507                       # BTB Hit Percentage
system.cpu.branchPred.RASUsed                   19760                       # Number of times the RAS was used to get a target.
system.cpu.branchPred.RASIncorrect                  2                       # Number of incorrect RAS predictions.
system.cpu.branchPred.indirectLookups             181                       # Number of indirect predictor lookups.
system.cpu.branchPred.indirectHits                 26                       # Number of indirect target hits.
system.cpu.branchPred.indirectMisses              155                       # Number of indirect misses.
system.cpu.branchPred.indirectMispredicted           73                       # Number of mispredicted indirect branches.
system.cpu.commit.commitSquashedInsts       151621118                       # The number of squashed insts skipped by commit
system.cpu.commit.commitNonSpecStalls          231330                       # The number of times commit has been forced to stall to communicate backwards
system.cpu.commit.branchMispredicts             29645                       # The number of times a branch was mispredicted
system.cpu.commit.numCommittedDist::samples    189389294                       # Number of insts commited each cycle
system.cpu.commit.numCommittedDist::mean     0.164216                       # Number of insts commited each cycle
system.cpu.commit.numCommittedDist::stdev     0.944371                       # Number of insts commited each cycle
system.cpu.commit.numCommittedDist::underflows            0      0.00%      0.00% # Number of insts commited each cycle
system.cpu.commit.numCommittedDist::0       179962406     95.02%     95.02% # Number of insts commited each cycle
system.cpu.commit.numCommittedDist::1         4325532      2.28%     97.31% # Number of insts commited each cycle
system.cpu.commit.numCommittedDist::2          524121      0.28%     97.58% # Number of insts commited each cycle
system.cpu.commit.numCommittedDist::3         1446913      0.76%     98.35% # Number of insts commited each cycle
system.cpu.commit.numCommittedDist::4          538295      0.28%     98.63% # Number of insts commited each cycle
system.cpu.commit.numCommittedDist::5          382756      0.20%     98.83% # Number of insts commited each cycle
system.cpu.commit.numCommittedDist::6          158407      0.08%     98.92% # Number of insts commited each cycle
system.cpu.commit.numCommittedDist::7           38161      0.02%     98.94% # Number of insts commited each cycle
system.cpu.commit.numCommittedDist::8         2012703      1.06%    100.00% # Number of insts commited each cycle
system.cpu.commit.numCommittedDist::overflows            0      0.00%    100.00% # Number of insts commited each cycle
system.cpu.commit.numCommittedDist::min_value            0                       # Number of insts commited each cycle
system.cpu.commit.numCommittedDist::max_value            8                       # Number of insts commited each cycle
system.cpu.commit.numCommittedDist::total    189389294                       # Number of insts commited each cycle
system.cpu.commit.instsCommitted             20000000                       # Number of instructions committed
system.cpu.commit.opsCommitted               31100666                       # Number of ops (including micro ops) committed
system.cpu.commit.memRefs                    12387424                       # Number of memory references committed
system.cpu.commit.loads                       7560486                       # Number of loads committed
system.cpu.commit.amos                              0                       # Number of atomic instructions committed
system.cpu.commit.membars                           0                       # Number of memory barriers committed
system.cpu.commit.branches                    2658570                       # Number of branches committed
system.cpu.commit.vector                            0                       # Number of committed Vector instructions.
system.cpu.commit.floating                        612                       # Number of committed floating point instructions.
system.cpu.commit.integer                    30809187                       # Number of committed integer instructions.
system.cpu.commit.functionCalls                 15454                       # Number of function calls committed.
system.cpu.commit.committedInstType_0::No_OpClass       291114      0.94%      0.94% # Class of committed instruction
system.cpu.commit.committedInstType_0::IntAlu     18421629     59.23%     60.17% # Class of committed instruction
system.cpu.commit.committedInstType_0::IntMult           96      0.00%     60.17% # Class of committed instruction
system.cpu.commit.committedInstType_0::IntDiv           49      0.00%     60.17% # Class of committed instruction
system.cpu.commit.committedInstType_0::FloatAdd            8      0.00%     60.17% # Class of committed instruction
system.cpu.commit.committedInstType_0::FloatCmp            0      0.00%     60.17% # Class of committed instruction
system.cpu.commit.committedInstType_0::FloatCvt            0      0.00%     60.17% # Class of committed instruction
system.cpu.commit.committedInstType_0::FloatMult            0      0.00%     60.17% # Class of committed instruction
system.cpu.commit.committedInstType_0::FloatMultAcc            0      0.00%     60.17% # Class of committed instruction
system.cpu.commit.committedInstType_0::FloatDiv            0      0.00%     60.17% # Class of committed instruction
system.cpu.commit.committedInstType_0::FloatMisc            0      0.00%     60.17% # Class of committed instruction
system.cpu.commit.committedInstType_0::FloatSqrt            0      0.00%     60.17% # Class of committed instruction
system.cpu.commit.committedInstType_0::SimdAdd            0      0.00%     60.17% # Class of committed instruction
system.cpu.commit.committedInstType_0::SimdAddAcc            0      0.00%     60.17% # Class of committed instruction
system.cpu.commit.committedInstType_0::SimdAlu           94      0.00%     60.17% # Class of committed instruction
system.cpu.commit.committedInstType_0::SimdCmp            0      0.00%     60.17% # Class of committed instruction
system.cpu.commit.committedInstType_0::SimdCvt           98      0.00%     60.17% # Class of committed instruction
system.cpu.commit.committedInstType_0::SimdMisc          154      0.00%     60.17% # Class of committed instruction
system.cpu.commit.committedInstType_0::SimdMult            0      0.00%     60.17% # Class of committed instruction
system.cpu.commit.committedInstType_0::SimdMultAcc            0      0.00%     60.17% # Class of committed instruction
system.cpu.commit.committedInstType_0::SimdShift            0      0.00%     60.17% # Class of committed instruction
system.cpu.commit.committedInstType_0::SimdShiftAcc            0      0.00%     60.17% # Class of committed instruction
system.cpu.commit.committedInstType_0::SimdDiv            0      0.00%     60.17% # Class of committed instruction
system.cpu.commit.committedInstType_0::SimdSqrt            0      0.00%     60.17% # Class of committed instruction
system.cpu.commit.committedInstType_0::SimdFloatAdd            0      0.00%     60.17% # Class of committed instruction
system.cpu.commit.committedInstType_0::SimdFloatAlu            0      0.00%     60.17% # Class of committed instruction
system.cpu.commit.committedInstType_0::SimdFloatCmp            0      0.00%     60.17% # Class of committed instruction
system.cpu.commit.committedInstType_0::SimdFloatCvt            0      0.00%     60.17% # Class of committed instruction
system.cpu.commit.committedInstType_0::SimdFloatDiv            0      0.00%     60.17% # Class of committed instruction
system.cpu.commit.committedInstType_0::SimdFloatMisc            0      0.00%     60.17% # Class of committed instruction
system.cpu.commit.committedInstType_0::SimdFloatMult            0      0.00%     60.17% # Class of committed instruction
system.cpu.commit.committedInstType_0::SimdFloatMultAcc            0      0.00%     60.17% # Class of committed instruction
system.cpu.commit.committedInstType_0::SimdFloatSqrt            0      0.00%     60.17% # Class of committed instruction
system.cpu.commit.committedInstType_0::SimdReduceAdd            0      0.00%     60.17% # Class of committed instruction
system.cpu.commit.committedInstType_0::SimdReduceAlu            0      0.00%     60.17% # Class of committed instruction
system.cpu.commit.committedInstType_0::SimdReduceCmp            0      0.00%     60.17% # Class of committed instruction
system.cpu.commit.committedInstType_0::SimdFloatReduceAdd            0      0.00%     60.17% # Class of committed instruction
system.cpu.commit.committedInstType_0::SimdFloatReduceCmp            0      0.00%     60.17% # Class of committed instruction
system.cpu.commit.committedInstType_0::SimdAes            0      0.00%     60.17% # Class of committed instruction
system.cpu.commit.committedInstType_0::SimdAesMix            0      0.00%     60.17% # Class of committed instruction
system.cpu.commit.committedInstType_0::SimdSha1Hash            0      0.00%     60.17% # Class of committed instruction
system.cpu.commit.committedInstType_0::SimdSha1Hash2            0      0.00%     60.17% # Class of committed instruction
system.cpu.commit.committedInstType_0::SimdSha256Hash            0      0.00%     60.17% # Class of committed instruction
system.cpu.commit.committedInstType_0::SimdSha256Hash2            0      0.00%     60.17% # Class of committed instruction
system.cpu.commit.committedInstType_0::SimdShaSigma2            0      0.00%     60.17% # Class of committed instruction
system.cpu.commit.committedInstType_0::SimdShaSigma3            0      0.00%     60.17% # Class of committed instruction
system.cpu.commit.committedInstType_0::SimdPredAlu            0      0.00%     60.17% # Class of committed instruction
system.cpu.commit.committedInstType_0::MemRead      7560418     24.31%     84.48% # Class of committed instruction
system.cpu.commit.committedInstType_0::MemWrite      4826786     15.52%    100.00% # Class of committed instruction
system.cpu.commit.committedInstType_0::FloatMemRead           68      0.00%    100.00% # Class of committed instruction
system.cpu.commit.committedInstType_0::FloatMemWrite          152      0.00%    100.00% # Class of committed instruction
system.cpu.commit.committedInstType_0::IprAccess            0      0.00%    100.00% # Class of committed instruction
system.cpu.commit.committedInstType_0::InstPrefetch            0      0.00%    100.00% # Class of committed instruction
system.cpu.commit.committedInstType_0::total     31100666                       # Class of committed instruction
system.cpu.commit.commitEligibleSamples       2012703                       # number cycles where commit BW limit reached
system.cpu.fetch.icacheStallCycles           26267704                       # Number of cycles fetch is stalled on an Icache miss
system.cpu.fetch.insts                      216750164                       # Number of instructions fetch has processed
system.cpu.fetch.branches                     9543452                       # Number of branches that fetch encountered
system.cpu.fetch.predictedBranches            8271775                       # Number of branches that fetch has predicted taken
system.cpu.fetch.cycles                     180789949                       # Number of cycles fetch has run and was not squashing or blocked
system.cpu.fetch.squashCycles                 3860906                       # Number of cycles fetch has spent squashing
system.cpu.fetch.miscStallCycles                   45                       # Number of cycles fetch has spent waiting on interrupts,or bad addresses, or out of MSHRs
system.cpu.fetch.pendingTrapStallCycles           348                       # Number of stall cycles due to pending traps
system.cpu.fetch.pendingQuiesceStallCycles            1                       # Number of stall cycles due to pending quiesce instructions
system.cpu.fetch.cacheLines                  24726073                       # Number of cache lines fetched
system.cpu.fetch.icacheSquashes                239999                       # Number of outstanding Icache misses that were squashed
system.cpu.fetch.nisnDist::samples          208988500                       # Number of instructions fetched each cycle (Total)
system.cpu.fetch.nisnDist::mean              1.559343                       # Number of instructions fetched each cycle (Total)
system.cpu.fetch.nisnDist::stdev             2.923980                       # Number of instructions fetched each cycle (Total)
system.cpu.fetch.nisnDist::underflows               0      0.00%      0.00% # Number of instructions fetched each cycle (Total)
system.cpu.fetch.nisnDist::0                158261938     75.73%     75.73% # Number of instructions fetched each cycle (Total)
system.cpu.fetch.nisnDist::1                  2740672      1.31%     77.04% # Number of instructions fetched each cycle (Total)
system.cpu.fetch.nisnDist::2                   933695      0.45%     77.49% # Number of instructions fetched each cycle (Total)
system.cpu.fetch.nisnDist::3                  1612104      0.77%     78.26% # Number of instructions fetched each cycle (Total)
system.cpu.fetch.nisnDist::4                  1195871      0.57%     78.83% # Number of instructions fetched each cycle (Total)
system.cpu.fetch.nisnDist::5                  6876783      3.29%     82.12% # Number of instructions fetched each cycle (Total)
system.cpu.fetch.nisnDist::6                  8195490      3.92%     86.04% # Number of instructions fetched each cycle (Total)
system.cpu.fetch.nisnDist::7                  5275634      2.52%     88.57% # Number of instructions fetched each cycle (Total)
system.cpu.fetch.nisnDist::8                 23896313     11.43%    100.00% # Number of instructions fetched each cycle (Total)
system.cpu.fetch.nisnDist::overflows                0      0.00%    100.00% # Number of instructions fetched each cycle (Total)
system.cpu.fetch.nisnDist::min_value                0                       # Number of instructions fetched each cycle (Total)
system.cpu.fetch.nisnDist::max_value                8                       # Number of instructions fetched each cycle (Total)
system.cpu.fetch.nisnDist::total            208988500                       # Number of instructions fetched each cycle (Total)
system.cpu.fetch.branchRate                  0.045652                       # Number of branch fetches per cycle
system.cpu.fetch.rate                        1.036850                       # Number of inst fetches per cycle

---------- End Simulation Statistics   ----------
