
---------- Begin Simulation Statistics ----------
final_tick                               9087444275216                       # Number of ticks from beginning of simulation (restored from checkpoints and never reset)
host_inst_rate                                 168841                       # Simulator instruction rate (inst/s)
host_mem_usage                               17019632                       # Number of bytes of host memory used
host_op_rate                                   250696                       # Simulator op (including micro ops) rate (op/s)
host_seconds                                    59.23                       # Real time elapsed on the host
host_tick_rate                               78293312                       # Simulator tick rate (ticks/s)
sim_freq                                 1000000000000                       # Frequency of simulated ticks
sim_insts                                    10000021                       # Number of instructions simulated
sim_ops                                      14848144                       # Number of ops (including micro ops) simulated
sim_seconds                                  0.004637                       # Number of seconds simulated
sim_ticks                                  4637127216                       # Number of ticks simulated
system.cpu.Branches                                 4                       # Number of branches fetched
system.cpu.committedInsts                          16                       # Number of instructions committed
system.cpu.committedOps                            30                       # Number of ops (including micro ops) committed
system.cpu.dtb.rdAccesses                           2                       # TLB accesses on read requests
system.cpu.dtb.rdMisses                             0                       # TLB misses on read requests
system.cpu.dtb.wrAccesses                           2                       # TLB accesses on write requests
system.cpu.dtb.wrMisses                             0                       # TLB misses on write requests
system.cpu.idle_fraction                            0                       # Percentage of idle cycles
system.cpu.itb.rdAccesses                           0                       # TLB accesses on read requests
system.cpu.itb.rdMisses                             0                       # TLB misses on read requests
system.cpu.itb.wrAccesses                          21                       # TLB accesses on write requests
system.cpu.itb.wrMisses                             0                       # TLB misses on write requests
system.cpu.not_idle_fraction                        1                       # Percentage of non-idle cycles
system.cpu.numCycles                               35                       # number of cpu cycles simulated
system.cpu.numWorkItemsCompleted                    0                       # number of work items this cpu completed
system.cpu.numWorkItemsStarted                      0                       # number of work items this cpu started
system.cpu.num_busy_cycles                         35                       # Number of busy cycles
system.cpu.num_cc_register_reads                   15                       # number of times the CC registers were read
system.cpu.num_cc_register_writes                  10                       # number of times the CC registers were written
system.cpu.num_conditional_control_insts            3                       # number of instructions that are conditional controls
system.cpu.num_fp_alu_accesses                      7                       # Number of float alu accesses
system.cpu.num_fp_insts                             7                       # number of float instructions
system.cpu.num_fp_register_reads                   17                       # number of times the floating registers were read
system.cpu.num_fp_register_writes                   5                       # number of times the floating registers were written
system.cpu.num_func_calls                           1                       # number of times a function call or return occured
system.cpu.num_idle_cycles                          0                       # Number of idle cycles
system.cpu.num_int_alu_accesses                    25                       # Number of integer alu accesses
system.cpu.num_int_insts                           25                       # number of integer instructions
system.cpu.num_int_register_reads                  38                       # number of times the integer registers were read
system.cpu.num_int_register_writes                 19                       # number of times the integer registers were written
system.cpu.num_load_insts                           2                       # Number of load instructions
system.cpu.num_mem_refs                             4                       # number of memory refs
system.cpu.num_store_insts                          2                       # Number of store instructions
system.cpu.num_vec_alu_accesses                     0                       # Number of vector alu accesses
system.cpu.num_vec_insts                            0                       # number of vector instructions
system.cpu.num_vec_register_reads                   0                       # number of times the vector registers were read
system.cpu.num_vec_register_writes                  0                       # number of times the vector registers were written
system.cpu.op_class::No_OpClass                     0      0.00%      0.00% # Class of executed instruction
system.cpu.op_class::IntAlu                        21     70.00%     70.00% # Class of executed instruction
system.cpu.op_class::IntMult                        0      0.00%     70.00% # Class of executed instruction
system.cpu.op_class::IntDiv                         0      0.00%     70.00% # Class of executed instruction
system.cpu.op_class::FloatAdd                       0      0.00%     70.00% # Class of executed instruction
system.cpu.op_class::FloatCmp                       0      0.00%     70.00% # Class of executed instruction
system.cpu.op_class::FloatCvt                       0      0.00%     70.00% # Class of executed instruction
system.cpu.op_class::FloatMult                      0      0.00%     70.00% # Class of executed instruction
system.cpu.op_class::FloatMultAcc                   0      0.00%     70.00% # Class of executed instruction
system.cpu.op_class::FloatDiv                       0      0.00%     70.00% # Class of executed instruction
system.cpu.op_class::FloatMisc                      0      0.00%     70.00% # Class of executed instruction
system.cpu.op_class::FloatSqrt                      0      0.00%     70.00% # Class of executed instruction
system.cpu.op_class::SimdAdd                        0      0.00%     70.00% # Class of executed instruction
system.cpu.op_class::SimdAddAcc                     0      0.00%     70.00% # Class of executed instruction
system.cpu.op_class::SimdAlu                        0      0.00%     70.00% # Class of executed instruction
system.cpu.op_class::SimdCmp                        0      0.00%     70.00% # Class of executed instruction
system.cpu.op_class::SimdCvt                        0      0.00%     70.00% # Class of executed instruction
system.cpu.op_class::SimdMisc                       0      0.00%     70.00% # Class of executed instruction
system.cpu.op_class::SimdMult                       0      0.00%     70.00% # Class of executed instruction
system.cpu.op_class::SimdMultAcc                    0      0.00%     70.00% # Class of executed instruction
system.cpu.op_class::SimdShift                      0      0.00%     70.00% # Class of executed instruction
system.cpu.op_class::SimdShiftAcc                   0      0.00%     70.00% # Class of executed instruction
system.cpu.op_class::SimdDiv                        0      0.00%     70.00% # Class of executed instruction
system.cpu.op_class::SimdSqrt                       0      0.00%     70.00% # Class of executed instruction
system.cpu.op_class::SimdFloatAdd                   4     13.33%     83.33% # Class of executed instruction
system.cpu.op_class::SimdFloatAlu                   0      0.00%     83.33% # Class of executed instruction
system.cpu.op_class::SimdFloatCmp                   0      0.00%     83.33% # Class of executed instruction
system.cpu.op_class::SimdFloatCvt                   0      0.00%     83.33% # Class of executed instruction
system.cpu.op_class::SimdFloatDiv                   0      0.00%     83.33% # Class of executed instruction
system.cpu.op_class::SimdFloatMisc                  0      0.00%     83.33% # Class of executed instruction
system.cpu.op_class::SimdFloatMult                  1      3.33%     86.67% # Class of executed instruction
system.cpu.op_class::SimdFloatMultAcc               0      0.00%     86.67% # Class of executed instruction
system.cpu.op_class::SimdFloatSqrt                  0      0.00%     86.67% # Class of executed instruction
system.cpu.op_class::SimdReduceAdd                  0      0.00%     86.67% # Class of executed instruction
system.cpu.op_class::SimdReduceAlu                  0      0.00%     86.67% # Class of executed instruction
system.cpu.op_class::SimdReduceCmp                  0      0.00%     86.67% # Class of executed instruction
system.cpu.op_class::SimdFloatReduceAdd             0      0.00%     86.67% # Class of executed instruction
system.cpu.op_class::SimdFloatReduceCmp             0      0.00%     86.67% # Class of executed instruction
system.cpu.op_class::SimdAes                        0      0.00%     86.67% # Class of executed instruction
system.cpu.op_class::SimdAesMix                     0      0.00%     86.67% # Class of executed instruction
system.cpu.op_class::SimdSha1Hash                   0      0.00%     86.67% # Class of executed instruction
system.cpu.op_class::SimdSha1Hash2                  0      0.00%     86.67% # Class of executed instruction
system.cpu.op_class::SimdSha256Hash                 0      0.00%     86.67% # Class of executed instruction
system.cpu.op_class::SimdSha256Hash2                0      0.00%     86.67% # Class of executed instruction
system.cpu.op_class::SimdShaSigma2                  0      0.00%     86.67% # Class of executed instruction
system.cpu.op_class::SimdShaSigma3                  0      0.00%     86.67% # Class of executed instruction
system.cpu.op_class::SimdPredAlu                    0      0.00%     86.67% # Class of executed instruction
system.cpu.op_class::MemRead                        2      6.67%     93.33% # Class of executed instruction
system.cpu.op_class::MemWrite                       0      0.00%     93.33% # Class of executed instruction
system.cpu.op_class::FloatMemRead                   0      0.00%     93.33% # Class of executed instruction
system.cpu.op_class::FloatMemWrite                  2      6.67%    100.00% # Class of executed instruction
system.cpu.op_class::IprAccess                      0      0.00%    100.00% # Class of executed instruction
system.cpu.op_class::InstPrefetch                   0      0.00%    100.00% # Class of executed instruction
system.cpu.op_class::total                         30                       # Class of executed instruction
system.cpu.workload.numSyscalls                     0                       # Number of system calls
system.membus.snoop_filter.hit_multi_requests            0                       # Number of requests hitting in the snoop filter with multiple (>1) holders of the requested data.
system.membus.snoop_filter.hit_multi_snoops            0                       # Number of snoops hitting in the snoop filter with multiple (>1) holders of the requested data.
system.membus.snoop_filter.hit_single_requests       134121                       # Number of requests hitting in the snoop filter with a single holder of the requested data.
system.membus.snoop_filter.hit_single_snoops            0                       # Number of snoops hitting in the snoop filter with a single holder of the requested data.
system.membus.snoop_filter.tot_requests        272364                       # Total number of requests made to the snoop filter.
system.membus.snoop_filter.tot_snoops               0                       # Total number of snoops made to the snoop filter.
system.switch_cpus.branchPred.BTBCorrect            0                       # Number of correct BTB predictions (this stat may not work properly.
system.switch_cpus.branchPred.BTBHitPct      0.000000                       # BTB Hit Percentage
system.switch_cpus.branchPred.BTBHits               0                       # Number of BTB hits
system.switch_cpus.branchPred.BTBLookups       158142                       # Number of BTB lookups
system.switch_cpus.branchPred.RASInCorrect            0                       # Number of incorrect RAS predictions.
system.switch_cpus.branchPred.condIncorrect           52                       # Number of conditional branches incorrect
system.switch_cpus.branchPred.condPredicted       194519                       # Number of conditional branches predicted
system.switch_cpus.branchPred.indirectHits       157910                       # Number of indirect target hits.
system.switch_cpus.branchPred.indirectLookups       158142                       # Number of indirect predictor lookups.
system.switch_cpus.branchPred.indirectMisses          232                       # Number of indirect misses.
system.switch_cpus.branchPred.lookups          243297                       # Number of BP lookups
system.switch_cpus.branchPred.usedRAS           24342                       # Number of times the RAS was used to get a target.
system.switch_cpus.branchPredindirectMispredicted           32                       # Number of mispredicted indirect branches.
system.switch_cpus.cc_regfile_reads           1032874                       # number of cc regfile reads
system.switch_cpus.cc_regfile_writes          1628359                       # number of cc regfile writes
system.switch_cpus.commit.amos                      0                       # Number of atomic instructions committed
system.switch_cpus.commit.branchMispredicts           52                       # The number of times a branch was mispredicted
system.switch_cpus.commit.branches             243010                       # Number of branches committed
system.switch_cpus.commit.bw_lim_events       1166485                       # number cycles where commit BW limit reached
system.switch_cpus.commit.commitSquashedInsts          958                       # The number of squashed insts skipped by commit
system.switch_cpus.commit.committedInsts     10000005                       # Number of instructions committed
system.switch_cpus.commit.committedOps       14848114                       # Number of ops (including micro ops) committed
system.switch_cpus.commit.committed_per_cycle::samples     16677932                       # Number of insts commited each cycle
system.switch_cpus.commit.committed_per_cycle::mean     0.890285                       # Number of insts commited each cycle
system.switch_cpus.commit.committed_per_cycle::stdev     2.279486                       # Number of insts commited each cycle
system.switch_cpus.commit.committed_per_cycle::underflows            0      0.00%      0.00% # Number of insts commited each cycle
system.switch_cpus.commit.committed_per_cycle::0     14101959     84.55%     84.55% # Number of insts commited each cycle
system.switch_cpus.commit.committed_per_cycle::1        48646      0.29%     84.85% # Number of insts commited each cycle
system.switch_cpus.commit.committed_per_cycle::2       364516      2.19%     87.03% # Number of insts commited each cycle
system.switch_cpus.commit.committed_per_cycle::3        97215      0.58%     87.61% # Number of insts commited each cycle
system.switch_cpus.commit.committed_per_cycle::4       376676      2.26%     89.87% # Number of insts commited each cycle
system.switch_cpus.commit.committed_per_cycle::5       267296      1.60%     91.48% # Number of insts commited each cycle
system.switch_cpus.commit.committed_per_cycle::6       182246      1.09%     92.57% # Number of insts commited each cycle
system.switch_cpus.commit.committed_per_cycle::7        72893      0.44%     93.01% # Number of insts commited each cycle
system.switch_cpus.commit.committed_per_cycle::8      1166485      6.99%    100.00% # Number of insts commited each cycle
system.switch_cpus.commit.committed_per_cycle::overflows            0      0.00%    100.00% # Number of insts commited each cycle
system.switch_cpus.commit.committed_per_cycle::min_value            0                       # Number of insts commited each cycle
system.switch_cpus.commit.committed_per_cycle::max_value            8                       # Number of insts commited each cycle
system.switch_cpus.commit.committed_per_cycle::total     16677932                       # Number of insts commited each cycle
system.switch_cpus.commit.fp_insts           12320796                       # Number of committed floating point instructions.
system.switch_cpus.commit.function_calls        24302                       # Number of function calls committed.
system.switch_cpus.commit.int_insts           5297670                       # Number of committed integer instructions.
system.switch_cpus.commit.loads               2393681                       # Number of loads committed
system.switch_cpus.commit.membars                   0                       # Number of memory barriers committed
system.switch_cpus.commit.mispred_commit_branch           50                       # mein_hi_hun
system.switch_cpus.commit.op_class_0::No_OpClass            0      0.00%      0.00% # Class of committed instruction
system.switch_cpus.commit.op_class_0::IntAlu      4848107     32.65%     32.65% # Class of committed instruction
system.switch_cpus.commit.op_class_0::IntMult            0      0.00%     32.65% # Class of committed instruction
system.switch_cpus.commit.op_class_0::IntDiv            0      0.00%     32.65% # Class of committed instruction
system.switch_cpus.commit.op_class_0::FloatAdd      2332928     15.71%     48.36% # Class of committed instruction
system.switch_cpus.commit.op_class_0::FloatCmp            0      0.00%     48.36% # Class of committed instruction
system.switch_cpus.commit.op_class_0::FloatCvt            0      0.00%     48.36% # Class of committed instruction
system.switch_cpus.commit.op_class_0::FloatMult            0      0.00%     48.36% # Class of committed instruction
system.switch_cpus.commit.op_class_0::FloatMultAcc            0      0.00%     48.36% # Class of committed instruction
system.switch_cpus.commit.op_class_0::FloatDiv            0      0.00%     48.36% # Class of committed instruction
system.switch_cpus.commit.op_class_0::FloatMisc            0      0.00%     48.36% # Class of committed instruction
system.switch_cpus.commit.op_class_0::FloatSqrt            0      0.00%     48.36% # Class of committed instruction
system.switch_cpus.commit.op_class_0::SimdAdd            0      0.00%     48.36% # Class of committed instruction
system.switch_cpus.commit.op_class_0::SimdAddAcc            0      0.00%     48.36% # Class of committed instruction
system.switch_cpus.commit.op_class_0::SimdAlu            0      0.00%     48.36% # Class of committed instruction
system.switch_cpus.commit.op_class_0::SimdCmp            0      0.00%     48.36% # Class of committed instruction
system.switch_cpus.commit.op_class_0::SimdCvt            0      0.00%     48.36% # Class of committed instruction
system.switch_cpus.commit.op_class_0::SimdMisc            0      0.00%     48.36% # Class of committed instruction
system.switch_cpus.commit.op_class_0::SimdMult            0      0.00%     48.36% # Class of committed instruction
system.switch_cpus.commit.op_class_0::SimdMultAcc            0      0.00%     48.36% # Class of committed instruction
system.switch_cpus.commit.op_class_0::SimdShift            0      0.00%     48.36% # Class of committed instruction
system.switch_cpus.commit.op_class_0::SimdShiftAcc            0      0.00%     48.36% # Class of committed instruction
system.switch_cpus.commit.op_class_0::SimdDiv            0      0.00%     48.36% # Class of committed instruction
system.switch_cpus.commit.op_class_0::SimdSqrt            0      0.00%     48.36% # Class of committed instruction
system.switch_cpus.commit.op_class_0::SimdFloatAdd      2187122     14.73%     63.09% # Class of committed instruction
system.switch_cpus.commit.op_class_0::SimdFloatAlu            0      0.00%     63.09% # Class of committed instruction
system.switch_cpus.commit.op_class_0::SimdFloatCmp            0      0.00%     63.09% # Class of committed instruction
system.switch_cpus.commit.op_class_0::SimdFloatCvt            0      0.00%     63.09% # Class of committed instruction
system.switch_cpus.commit.op_class_0::SimdFloatDiv            0      0.00%     63.09% # Class of committed instruction
system.switch_cpus.commit.op_class_0::SimdFloatMisc            0      0.00%     63.09% # Class of committed instruction
system.switch_cpus.commit.op_class_0::SimdFloatMult      2624550     17.68%     80.77% # Class of committed instruction
system.switch_cpus.commit.op_class_0::SimdFloatMultAcc            0      0.00%     80.77% # Class of committed instruction
system.switch_cpus.commit.op_class_0::SimdFloatSqrt            0      0.00%     80.77% # Class of committed instruction
system.switch_cpus.commit.op_class_0::SimdReduceAdd            0      0.00%     80.77% # Class of committed instruction
system.switch_cpus.commit.op_class_0::SimdReduceAlu            0      0.00%     80.77% # Class of committed instruction
system.switch_cpus.commit.op_class_0::SimdReduceCmp            0      0.00%     80.77% # Class of committed instruction
system.switch_cpus.commit.op_class_0::SimdFloatReduceAdd            0      0.00%     80.77% # Class of committed instruction
system.switch_cpus.commit.op_class_0::SimdFloatReduceCmp            0      0.00%     80.77% # Class of committed instruction
system.switch_cpus.commit.op_class_0::SimdAes            0      0.00%     80.77% # Class of committed instruction
system.switch_cpus.commit.op_class_0::SimdAesMix            0      0.00%     80.77% # Class of committed instruction
system.switch_cpus.commit.op_class_0::SimdSha1Hash            0      0.00%     80.77% # Class of committed instruction
system.switch_cpus.commit.op_class_0::SimdSha1Hash2            0      0.00%     80.77% # Class of committed instruction
system.switch_cpus.commit.op_class_0::SimdSha256Hash            0      0.00%     80.77% # Class of committed instruction
system.switch_cpus.commit.op_class_0::SimdSha256Hash2            0      0.00%     80.77% # Class of committed instruction
system.switch_cpus.commit.op_class_0::SimdShaSigma2            0      0.00%     80.77% # Class of committed instruction
system.switch_cpus.commit.op_class_0::SimdShaSigma3            0      0.00%     80.77% # Class of committed instruction
system.switch_cpus.commit.op_class_0::SimdPredAlu            0      0.00%     80.77% # Class of committed instruction
system.switch_cpus.commit.op_class_0::MemRead        60753      0.41%     81.18% # Class of committed instruction
system.switch_cpus.commit.op_class_0::MemWrite        24302      0.16%     81.34% # Class of committed instruction
system.switch_cpus.commit.op_class_0::FloatMemRead      2332928     15.71%     97.05% # Class of committed instruction
system.switch_cpus.commit.op_class_0::FloatMemWrite       437424      2.95%    100.00% # Class of committed instruction
system.switch_cpus.commit.op_class_0::IprAccess            0      0.00%    100.00% # Class of committed instruction
system.switch_cpus.commit.op_class_0::InstPrefetch            0      0.00%    100.00% # Class of committed instruction
system.switch_cpus.commit.op_class_0::total     14848114                       # Class of committed instruction
system.switch_cpus.commit.refs                2855407                       # Number of memory references committed
system.switch_cpus.commit.swp_count                 0                       # Number of s/w prefetches committed
system.switch_cpus.commit.vec_insts                 0                       # Number of committed Vector instructions.
system.switch_cpus.committedInsts            10000005                       # Number of Instructions Simulated
system.switch_cpus.committedOps              14848114                       # Number of Ops (including micro ops) Simulated
system.switch_cpus.cpi                       1.668027                       # CPI: Cycles Per Instruction
system.switch_cpus.cpi_total                 1.668027                       # CPI: Total CPI of All Threads
system.switch_cpus.decode.BlockedCycles      13988958                       # Number of cycles decode is blocked
system.switch_cpus.decode.DecodedInsts       14849876                       # Number of instructions handled by decode
system.switch_cpus.decode.IdleCycles           635339                       # Number of cycles decode is idle
system.switch_cpus.decode.RunCycles           1660734                       # Number of cycles decode is running
system.switch_cpus.decode.SquashCycles             52                       # Number of cycles decode is squashing
system.switch_cpus.decode.UnblockCycles        392988                       # Number of cycles decode is unblocking
system.switch_cpus.dtb.rdAccesses             2393786                       # TLB accesses on read requests
system.switch_cpus.dtb.rdMisses                 12179                       # TLB misses on read requests
system.switch_cpus.dtb.wrAccesses              461734                       # TLB accesses on write requests
system.switch_cpus.dtb.wrMisses                   429                       # TLB misses on write requests
system.switch_cpus.fetch.Branches              243297                       # Number of branches that fetch encountered
system.switch_cpus.fetch.CacheLines            887127                       # Number of cache lines fetched
system.switch_cpus.fetch.Cycles              15789772                       # Number of cycles fetch has run and was not squashing or blocked
system.switch_cpus.fetch.IcacheSquashes             5                       # Number of outstanding Icache misses that were squashed
system.switch_cpus.fetch.Insts               10001209                       # Number of instructions fetch has processed
system.switch_cpus.fetch.SquashCycles             104                       # Number of cycles fetch has spent squashing
system.switch_cpus.fetch.branchRate          0.014586                       # Number of branch fetches per cycle
system.switch_cpus.fetch.icacheStallCycles       888254                       # Number of cycles fetch is stalled on an Icache miss
system.switch_cpus.fetch.predictedBranches       182252                       # Number of branches that fetch has predicted taken
system.switch_cpus.fetch.rate                0.599583                       # Number of inst fetches per cycle
system.switch_cpus.fetch.rateDist::samples     16678078                       # Number of instructions fetched each cycle (Total)
system.switch_cpus.fetch.rateDist::mean      0.890428                       # Number of instructions fetched each cycle (Total)
system.switch_cpus.fetch.rateDist::stdev     2.390571                       # Number of instructions fetched each cycle (Total)
system.switch_cpus.fetch.rateDist::underflows            0      0.00%      0.00% # Number of instructions fetched each cycle (Total)
system.switch_cpus.fetch.rateDist::0         14476861     86.80%     86.80% # Number of instructions fetched each cycle (Total)
system.switch_cpus.fetch.rateDist::1            72884      0.44%     87.24% # Number of instructions fetched each cycle (Total)
system.switch_cpus.fetch.rateDist::2            24404      0.15%     87.39% # Number of instructions fetched each cycle (Total)
system.switch_cpus.fetch.rateDist::3            62346      0.37%     87.76% # Number of instructions fetched each cycle (Total)
system.switch_cpus.fetch.rateDist::4           196045      1.18%     88.93% # Number of instructions fetched each cycle (Total)
system.switch_cpus.fetch.rateDist::5           267191      1.60%     90.54% # Number of instructions fetched each cycle (Total)
system.switch_cpus.fetch.rateDist::6            24354      0.15%     90.68% # Number of instructions fetched each cycle (Total)
system.switch_cpus.fetch.rateDist::7           156306      0.94%     91.62% # Number of instructions fetched each cycle (Total)
system.switch_cpus.fetch.rateDist::8          1397687      8.38%    100.00% # Number of instructions fetched each cycle (Total)
system.switch_cpus.fetch.rateDist::overflows            0      0.00%    100.00% # Number of instructions fetched each cycle (Total)
system.switch_cpus.fetch.rateDist::min_value            0                       # Number of instructions fetched each cycle (Total)
system.switch_cpus.fetch.rateDist::max_value            8                       # Number of instructions fetched each cycle (Total)
system.switch_cpus.fetch.rateDist::total     16678078                       # Number of instructions fetched each cycle (Total)
system.switch_cpus.fp_regfile_reads          19684196                       # number of floating regfile reads
system.switch_cpus.fp_regfile_writes         11883474                       # number of floating regfile writes
system.switch_cpus.idleCycles                    2199                       # Total number of cycles that the CPU has spent unscheduled due to idling
system.switch_cpus.iew.Average_branch_resolution_cycles            0                       # sirf mispred wala
system.switch_cpus.iew.branchMispredicts           70                       # Number of branch mispredicts detected at execute
system.switch_cpus.iew.exec_branches           243059                       # Number of branches executed
system.switch_cpus.iew.exec_nop                     0                       # number of nop insts executed
system.switch_cpus.iew.exec_rate             0.910741                       # Inst execution rate
system.switch_cpus.iew.exec_refs              3198213                       # number of memory reference insts executed
system.switch_cpus.iew.exec_stores             461734                       # Number of stores executed
system.switch_cpus.iew.exec_swp                     0                       # number of swp insts executed
system.switch_cpus.iew.global_million_exceeded_g            0                       # multiple with  million wala
system.switch_cpus.iew.global_million_timer_g   169.580000                       # less than million wala
system.switch_cpus.iew.iewBlockCycles        12165703                       # Number of cycles IEW is blocking
system.switch_cpus.iew.iewDispLoadInsts       2393862                       # Number of dispatched load instructions
system.switch_cpus.iew.iewDispNonSpecInsts            0                       # Number of dispatched non-speculative instructions
system.switch_cpus.iew.iewDispSquashedInsts            0                       # Number of squashed instructions skipped by dispatch
system.switch_cpus.iew.iewDispStoreInsts       461761                       # Number of dispatched store instructions
system.switch_cpus.iew.iewDispatchedInsts     14849147                       # Number of instructions dispatched to IQ
system.switch_cpus.iew.iewExecLoadInsts       2736479                       # Number of load instructions executed
system.switch_cpus.iew.iewExecSquashedInsts          220                       # Number of squashed instructions skipped in execute
system.switch_cpus.iew.iewExecutedInsts      15191417                       # Number of executed instructions
system.switch_cpus.iew.iewIQFullEvents          72187                       # Number of times the IQ has become full, causing a stall
system.switch_cpus.iew.iewIdleCycles                0                       # Number of cycles IEW is idle
system.switch_cpus.iew.iewLSQFullEvents             0                       # Number of times the LSQ has become full, causing a stall
system.switch_cpus.iew.iewSquashCycles             52                       # Number of cycles IEW is squashing
system.switch_cpus.iew.iewUnblockCycles        122401                       # Number of cycles IEW is unblocking
system.switch_cpus.iew.lsq.thread0.blockedLoads            0                       # Number of blocked loads due to partial load-store forwarding
system.switch_cpus.iew.lsq.thread0.cacheBlocked        36939                       # Number of times an access to memory failed due to the cache being blocked
system.switch_cpus.iew.lsq.thread0.forwLoads         6730                       # Number of loads that had data forwarded from stores
system.switch_cpus.iew.lsq.thread0.ignoredResponses            0                       # Number of memory responses ignored because the instruction is squashed
system.switch_cpus.iew.lsq.thread0.invAddrLoads            0                       # Number of loads ignored due to an invalid address
system.switch_cpus.iew.lsq.thread0.invAddrSwpfs            0                       # Number of software prefetches ignored due to an invalid address
system.switch_cpus.iew.lsq.thread0.memOrderViolation            0                       # Number of memory ordering violations
system.switch_cpus.iew.lsq.thread0.night5            0                       # Number of loads that were rescheduled
system.switch_cpus.iew.lsq.thread0.rescheduledLoads            0                       # Number of loads that were rescheduled
system.switch_cpus.iew.lsq.thread0.squashedLoads          168                       # Number of loads squashed
system.switch_cpus.iew.lsq.thread0.squashedStores           33                       # Number of stores squashed
system.switch_cpus.iew.memOrderViolationEvents            0                       # Number of memory order violations
system.switch_cpus.iew.predictedNotTakenIncorrect           70                       # Number of branches that were predicted not taken incorrectly
system.switch_cpus.iew.predictedTakenIncorrect            0                       # Number of branches that were predicted taken incorrectly
system.switch_cpus.iew.td                           0                       # Number of td executed instructions
system.switch_cpus.iew.wb_consumers          18204247                       # num instructions consuming a value
system.switch_cpus.iew.wb_count              14848652                       # cumulative count of insts written-back
system.switch_cpus.iew.wb_fanout             0.578271                       # average fanout of values written-back
system.switch_cpus.iew.wb_producers          10526996                       # num instructions producing a value
system.switch_cpus.iew.wb_rate               0.890192                       # insts written-back per cycle
system.switch_cpus.iew.wb_sent               14848682                       # cumulative count of insts sent to commit
system.switch_cpus.int_regfile_reads          8960563                       # number of integer regfile reads
system.switch_cpus.int_regfile_writes         2260509                       # number of integer regfile writes
system.switch_cpus.ipc                       0.599511                       # IPC: Instructions Per Cycle
system.switch_cpus.ipc_total                 0.599511                       # IPC: Total IPC of All Threads
system.switch_cpus.iq.FU_type_0::No_OpClass            0      0.00%      0.00% # Type of FU issued
system.switch_cpus.iq.FU_type_0::IntAlu       4848745     31.92%     31.92% # Type of FU issued
system.switch_cpus.iq.FU_type_0::IntMult            0      0.00%     31.92% # Type of FU issued
system.switch_cpus.iq.FU_type_0::IntDiv             0      0.00%     31.92% # Type of FU issued
system.switch_cpus.iq.FU_type_0::FloatAdd      2332941     15.36%     47.27% # Type of FU issued
system.switch_cpus.iq.FU_type_0::FloatCmp            0      0.00%     47.27% # Type of FU issued
system.switch_cpus.iq.FU_type_0::FloatCvt            0      0.00%     47.27% # Type of FU issued
system.switch_cpus.iq.FU_type_0::FloatMult            0      0.00%     47.27% # Type of FU issued
system.switch_cpus.iq.FU_type_0::FloatMultAcc            0      0.00%     47.27% # Type of FU issued
system.switch_cpus.iq.FU_type_0::FloatDiv            0      0.00%     47.27% # Type of FU issued
system.switch_cpus.iq.FU_type_0::FloatMisc            0      0.00%     47.27% # Type of FU issued
system.switch_cpus.iq.FU_type_0::FloatSqrt            0      0.00%     47.27% # Type of FU issued
system.switch_cpus.iq.FU_type_0::SimdAdd            0      0.00%     47.27% # Type of FU issued
system.switch_cpus.iq.FU_type_0::SimdAddAcc            0      0.00%     47.27% # Type of FU issued
system.switch_cpus.iq.FU_type_0::SimdAlu            0      0.00%     47.27% # Type of FU issued
system.switch_cpus.iq.FU_type_0::SimdCmp            0      0.00%     47.27% # Type of FU issued
system.switch_cpus.iq.FU_type_0::SimdCvt            0      0.00%     47.27% # Type of FU issued
system.switch_cpus.iq.FU_type_0::SimdMisc            0      0.00%     47.27% # Type of FU issued
system.switch_cpus.iq.FU_type_0::SimdMult            0      0.00%     47.27% # Type of FU issued
system.switch_cpus.iq.FU_type_0::SimdMultAcc            0      0.00%     47.27% # Type of FU issued
system.switch_cpus.iq.FU_type_0::SimdShift            0      0.00%     47.27% # Type of FU issued
system.switch_cpus.iq.FU_type_0::SimdShiftAcc            0      0.00%     47.27% # Type of FU issued
system.switch_cpus.iq.FU_type_0::SimdDiv            0      0.00%     47.27% # Type of FU issued
system.switch_cpus.iq.FU_type_0::SimdSqrt            0      0.00%     47.27% # Type of FU issued
system.switch_cpus.iq.FU_type_0::SimdFloatAdd      2187130     14.40%     61.67% # Type of FU issued
system.switch_cpus.iq.FU_type_0::SimdFloatAlu            0      0.00%     61.67% # Type of FU issued
system.switch_cpus.iq.FU_type_0::SimdFloatCmp            0      0.00%     61.67% # Type of FU issued
system.switch_cpus.iq.FU_type_0::SimdFloatCvt            0      0.00%     61.67% # Type of FU issued
system.switch_cpus.iq.FU_type_0::SimdFloatDiv            0      0.00%     61.67% # Type of FU issued
system.switch_cpus.iq.FU_type_0::SimdFloatMisc            0      0.00%     61.67% # Type of FU issued
system.switch_cpus.iq.FU_type_0::SimdFloatMult      2624560     17.28%     78.95% # Type of FU issued
system.switch_cpus.iq.FU_type_0::SimdFloatMultAcc            0      0.00%     78.95% # Type of FU issued
system.switch_cpus.iq.FU_type_0::SimdFloatSqrt            0      0.00%     78.95% # Type of FU issued
system.switch_cpus.iq.FU_type_0::SimdReduceAdd            0      0.00%     78.95% # Type of FU issued
system.switch_cpus.iq.FU_type_0::SimdReduceAlu            0      0.00%     78.95% # Type of FU issued
system.switch_cpus.iq.FU_type_0::SimdReduceCmp            0      0.00%     78.95% # Type of FU issued
system.switch_cpus.iq.FU_type_0::SimdFloatReduceAdd            0      0.00%     78.95% # Type of FU issued
system.switch_cpus.iq.FU_type_0::SimdFloatReduceCmp            0      0.00%     78.95% # Type of FU issued
system.switch_cpus.iq.FU_type_0::SimdAes            0      0.00%     78.95% # Type of FU issued
system.switch_cpus.iq.FU_type_0::SimdAesMix            0      0.00%     78.95% # Type of FU issued
system.switch_cpus.iq.FU_type_0::SimdSha1Hash            0      0.00%     78.95% # Type of FU issued
system.switch_cpus.iq.FU_type_0::SimdSha1Hash2            0      0.00%     78.95% # Type of FU issued
system.switch_cpus.iq.FU_type_0::SimdSha256Hash            0      0.00%     78.95% # Type of FU issued
system.switch_cpus.iq.FU_type_0::SimdSha256Hash2            0      0.00%     78.95% # Type of FU issued
system.switch_cpus.iq.FU_type_0::SimdShaSigma2            0      0.00%     78.95% # Type of FU issued
system.switch_cpus.iq.FU_type_0::SimdShaSigma3            0      0.00%     78.95% # Type of FU issued
system.switch_cpus.iq.FU_type_0::SimdPredAlu            0      0.00%     78.95% # Type of FU issued
system.switch_cpus.iq.FU_type_0::MemRead        60882      0.40%     79.35% # Type of FU issued
system.switch_cpus.iq.FU_type_0::MemWrite        24323      0.16%     79.51% # Type of FU issued
system.switch_cpus.iq.FU_type_0::FloatMemRead      2675634     17.61%     97.12% # Type of FU issued
system.switch_cpus.iq.FU_type_0::FloatMemWrite       437426      2.88%    100.00% # Type of FU issued
system.switch_cpus.iq.FU_type_0::IprAccess            0      0.00%    100.00% # Type of FU issued
system.switch_cpus.iq.FU_type_0::InstPrefetch            0      0.00%    100.00% # Type of FU issued
system.switch_cpus.iq.FU_type_0::total       15191641                       # Type of FU issued
system.switch_cpus.iq.fp_alu_accesses        12776581                       # Number of floating point alu accesses
system.switch_cpus.iq.fp_inst_queue_reads     25440122                       # Number of floating instruction queue reads
system.switch_cpus.iq.fp_inst_queue_wakeup_accesses     12320844                       # Number of floating instruction queue wakeup accesses
system.switch_cpus.iq.fp_inst_queue_writes     12320860                       # Number of floating instruction queue writes
system.switch_cpus.iq.fu_busy_cnt              113038                       # FU busy when requested
system.switch_cpus.iq.fu_busy_rate           0.007441                       # FU busy rate (busy events/executed inst)
system.switch_cpus.iq.fu_full::No_OpClass            0      0.00%      0.00% # attempts to use FU when none available
system.switch_cpus.iq.fu_full::IntAlu               2      0.00%      0.00% # attempts to use FU when none available
system.switch_cpus.iq.fu_full::IntMult              0      0.00%      0.00% # attempts to use FU when none available
system.switch_cpus.iq.fu_full::IntDiv               0      0.00%      0.00% # attempts to use FU when none available
system.switch_cpus.iq.fu_full::FloatAdd             0      0.00%      0.00% # attempts to use FU when none available
system.switch_cpus.iq.fu_full::FloatCmp             0      0.00%      0.00% # attempts to use FU when none available
system.switch_cpus.iq.fu_full::FloatCvt             0      0.00%      0.00% # attempts to use FU when none available
system.switch_cpus.iq.fu_full::FloatMult            0      0.00%      0.00% # attempts to use FU when none available
system.switch_cpus.iq.fu_full::FloatMultAcc            0      0.00%      0.00% # attempts to use FU when none available
system.switch_cpus.iq.fu_full::FloatDiv             0      0.00%      0.00% # attempts to use FU when none available
system.switch_cpus.iq.fu_full::FloatMisc            0      0.00%      0.00% # attempts to use FU when none available
system.switch_cpus.iq.fu_full::FloatSqrt            0      0.00%      0.00% # attempts to use FU when none available
system.switch_cpus.iq.fu_full::SimdAdd              0      0.00%      0.00% # attempts to use FU when none available
system.switch_cpus.iq.fu_full::SimdAddAcc            0      0.00%      0.00% # attempts to use FU when none available
system.switch_cpus.iq.fu_full::SimdAlu              0      0.00%      0.00% # attempts to use FU when none available
system.switch_cpus.iq.fu_full::SimdCmp              0      0.00%      0.00% # attempts to use FU when none available
system.switch_cpus.iq.fu_full::SimdCvt              0      0.00%      0.00% # attempts to use FU when none available
system.switch_cpus.iq.fu_full::SimdMisc             0      0.00%      0.00% # attempts to use FU when none available
system.switch_cpus.iq.fu_full::SimdMult             0      0.00%      0.00% # attempts to use FU when none available
system.switch_cpus.iq.fu_full::SimdMultAcc            0      0.00%      0.00% # attempts to use FU when none available
system.switch_cpus.iq.fu_full::SimdShift            0      0.00%      0.00% # attempts to use FU when none available
system.switch_cpus.iq.fu_full::SimdShiftAcc            0      0.00%      0.00% # attempts to use FU when none available
system.switch_cpus.iq.fu_full::SimdDiv              0      0.00%      0.00% # attempts to use FU when none available
system.switch_cpus.iq.fu_full::SimdSqrt             0      0.00%      0.00% # attempts to use FU when none available
system.switch_cpus.iq.fu_full::SimdFloatAdd           51      0.05%      0.05% # attempts to use FU when none available
system.switch_cpus.iq.fu_full::SimdFloatAlu            0      0.00%      0.05% # attempts to use FU when none available
system.switch_cpus.iq.fu_full::SimdFloatCmp            0      0.00%      0.05% # attempts to use FU when none available
system.switch_cpus.iq.fu_full::SimdFloatCvt            0      0.00%      0.05% # attempts to use FU when none available
system.switch_cpus.iq.fu_full::SimdFloatDiv            0      0.00%      0.05% # attempts to use FU when none available
system.switch_cpus.iq.fu_full::SimdFloatMisc            0      0.00%      0.05% # attempts to use FU when none available
system.switch_cpus.iq.fu_full::SimdFloatMult        60761     53.75%     53.80% # attempts to use FU when none available
system.switch_cpus.iq.fu_full::SimdFloatMultAcc            0      0.00%     53.80% # attempts to use FU when none available
system.switch_cpus.iq.fu_full::SimdFloatSqrt            0      0.00%     53.80% # attempts to use FU when none available
system.switch_cpus.iq.fu_full::SimdReduceAdd            0      0.00%     53.80% # attempts to use FU when none available
system.switch_cpus.iq.fu_full::SimdReduceAlu            0      0.00%     53.80% # attempts to use FU when none available
system.switch_cpus.iq.fu_full::SimdReduceCmp            0      0.00%     53.80% # attempts to use FU when none available
system.switch_cpus.iq.fu_full::SimdFloatReduceAdd            0      0.00%     53.80% # attempts to use FU when none available
system.switch_cpus.iq.fu_full::SimdFloatReduceCmp            0      0.00%     53.80% # attempts to use FU when none available
system.switch_cpus.iq.fu_full::SimdAes              0      0.00%     53.80% # attempts to use FU when none available
system.switch_cpus.iq.fu_full::SimdAesMix            0      0.00%     53.80% # attempts to use FU when none available
system.switch_cpus.iq.fu_full::SimdSha1Hash            0      0.00%     53.80% # attempts to use FU when none available
system.switch_cpus.iq.fu_full::SimdSha1Hash2            0      0.00%     53.80% # attempts to use FU when none available
system.switch_cpus.iq.fu_full::SimdSha256Hash            0      0.00%     53.80% # attempts to use FU when none available
system.switch_cpus.iq.fu_full::SimdSha256Hash2            0      0.00%     53.80% # attempts to use FU when none available
system.switch_cpus.iq.fu_full::SimdShaSigma2            0      0.00%     53.80% # attempts to use FU when none available
system.switch_cpus.iq.fu_full::SimdShaSigma3            0      0.00%     53.80% # attempts to use FU when none available
system.switch_cpus.iq.fu_full::SimdPredAlu            0      0.00%     53.80% # attempts to use FU when none available
system.switch_cpus.iq.fu_full::MemRead              0      0.00%     53.80% # attempts to use FU when none available
system.switch_cpus.iq.fu_full::MemWrite             0      0.00%     53.80% # attempts to use FU when none available
system.switch_cpus.iq.fu_full::FloatMemRead        52224     46.20%    100.00% # attempts to use FU when none available
system.switch_cpus.iq.fu_full::FloatMemWrite            0      0.00%    100.00% # attempts to use FU when none available
system.switch_cpus.iq.fu_full::IprAccess            0      0.00%    100.00% # attempts to use FU when none available
system.switch_cpus.iq.fu_full::InstPrefetch            0      0.00%    100.00% # attempts to use FU when none available
system.switch_cpus.iq.int_alu_accesses        2528098                       # Number of integer alu accesses
system.switch_cpus.iq.int_inst_queue_reads     21734277                       # Number of integer instruction queue reads
system.switch_cpus.iq.int_inst_queue_wakeup_accesses      2527808                       # Number of integer instruction queue wakeup accesses
system.switch_cpus.iq.int_inst_queue_writes      2529245                       # Number of integer instruction queue writes
system.switch_cpus.iq.iqInstsAdded           14849147                       # Number of instructions added to the IQ (excludes non-spec)
system.switch_cpus.iq.iqInstsIssued          15191641                       # Number of instructions issued
system.switch_cpus.iq.iqSquashedInstsExamined          958                       # Number of squashed instructions iterated over during squash; mainly for profiling
system.switch_cpus.iq.iqSquashedInstsIssued            5                       # Number of squashed instructions issued
system.switch_cpus.iq.iqSquashedOperandsExamined         1037                       # Number of squashed operands that are examined and possibly removed from graph
system.switch_cpus.iq.issued_per_cycle::samples     16678078                       # Number of insts issued each cycle
system.switch_cpus.iq.issued_per_cycle::mean     0.910875                       # Number of insts issued each cycle
system.switch_cpus.iq.issued_per_cycle::stdev     2.060396                       # Number of insts issued each cycle
system.switch_cpus.iq.issued_per_cycle::underflows            0      0.00%      0.00% # Number of insts issued each cycle
system.switch_cpus.iq.issued_per_cycle::0     13191107     79.09%     79.09% # Number of insts issued each cycle
system.switch_cpus.iq.issued_per_cycle::1       490665      2.94%     82.03% # Number of insts issued each cycle
system.switch_cpus.iq.issued_per_cycle::2       421906      2.53%     84.56% # Number of insts issued each cycle
system.switch_cpus.iq.issued_per_cycle::3       459486      2.76%     87.32% # Number of insts issued each cycle
system.switch_cpus.iq.issued_per_cycle::4       495484      2.97%     90.29% # Number of insts issued each cycle
system.switch_cpus.iq.issued_per_cycle::5       480822      2.88%     93.17% # Number of insts issued each cycle
system.switch_cpus.iq.issued_per_cycle::6       375087      2.25%     95.42% # Number of insts issued each cycle
system.switch_cpus.iq.issued_per_cycle::7       266030      1.60%     97.02% # Number of insts issued each cycle
system.switch_cpus.iq.issued_per_cycle::8       497491      2.98%    100.00% # Number of insts issued each cycle
system.switch_cpus.iq.issued_per_cycle::overflows            0      0.00%    100.00% # Number of insts issued each cycle
system.switch_cpus.iq.issued_per_cycle::min_value            0                       # Number of insts issued each cycle
system.switch_cpus.iq.issued_per_cycle::max_value            8                       # Number of insts issued each cycle
system.switch_cpus.iq.issued_per_cycle::total     16678078                       # Number of insts issued each cycle
system.switch_cpus.iq.rate                   0.910755                       # Inst issue rate
system.switch_cpus.iq.vec_alu_accesses              0                       # Number of vector alu accesses
system.switch_cpus.iq.vec_inst_queue_reads            0                       # Number of vector instruction queue reads
system.switch_cpus.iq.vec_inst_queue_wakeup_accesses            0                       # Number of vector instruction queue wakeup accesses
system.switch_cpus.iq.vec_inst_queue_writes            0                       # Number of vector instruction queue writes
system.switch_cpus.itb.rdAccesses                   0                       # TLB accesses on read requests
system.switch_cpus.itb.rdMisses                     0                       # TLB misses on read requests
system.switch_cpus.itb.wrAccesses              887127                       # TLB accesses on write requests
system.switch_cpus.itb.wrMisses                     3                       # TLB misses on write requests
system.switch_cpus.memDep0.conflictingLoads            0                       # Number of conflicting loads.
system.switch_cpus.memDep0.conflictingStores            0                       # Number of conflicting stores.
system.switch_cpus.memDep0.insertedLoads      2393862                       # Number of loads inserted to the mem dependence unit.
system.switch_cpus.memDep0.insertedStores       461761                       # Number of stores inserted to the mem dependence unit.
system.switch_cpus.misc_regfile_reads         3684374                       # number of misc regfile reads
system.switch_cpus.misc_regfile_writes              1                       # number of misc regfile writes
system.switch_cpus.numCycles                 16680277                       # number of cpu cycles simulated
system.switch_cpus.numWorkItemsCompleted            0                       # number of work items this cpu completed
system.switch_cpus.numWorkItemsStarted              0                       # number of work items this cpu started
system.switch_cpus.rename.BlockCycles        13237954                       # Number of cycles rename is blocking
system.switch_cpus.rename.CommittedMaps      15771546                       # Number of HB maps that are committed
system.switch_cpus.rename.IQFullEvents         621555                       # Number of times rename has blocked due to IQ full
system.switch_cpus.rename.IdleCycles           803393                       # Number of cycles rename is idle
system.switch_cpus.rename.RenameLookups      32336102                       # Number of register rename lookups that rename has made
system.switch_cpus.rename.RenamedInsts       14849739                       # Number of instructions processed by rename
system.switch_cpus.rename.RenamedOperands     15773295                       # Number of destination operands rename has renamed
system.switch_cpus.rename.RunCycles           1833846                       # Number of cycles rename is running
system.switch_cpus.rename.SquashCycles             52                       # Number of cycles rename is squashing
system.switch_cpus.rename.UnblockCycles        802827                       # Number of cycles rename is unblocking
system.switch_cpus.rename.UndoneMaps             1645                       # Number of HB maps that are undone due to squashing
system.switch_cpus.rename.fp_rename_lookups     19684254                       # Number of floating rename lookups
system.switch_cpus.rename.int_rename_lookups      8276449                       # Number of integer rename lookups
system.switch_cpus.rename.serializeStallCycles            0                       # count of cycles rename stalled for serializing inst
system.switch_cpus.rename.serializingInsts            0                       # count of serializing insts renamed
system.switch_cpus.rename.skidInsts           2395058                       # count of insts added to the skid buffer
system.switch_cpus.rename.tempSerializingInsts            0                       # count of temporary serializing insts renamed
system.switch_cpus.rob.rob_reads             30360519                       # The number of ROB reads
system.switch_cpus.rob.rob_writes            29698373                       # The number of ROB writes
system.switch_cpus.timesIdled                      16                       # Number of times that the entire CPU went into an idle state and unscheduled itself
system.tol2bus.snoop_filter.hit_multi_requests            0                       # Number of requests hitting in the snoop filter with multiple (>1) holders of the requested data.
system.tol2bus.snoop_filter.hit_multi_snoops            0                       # Number of snoops hitting in the snoop filter with multiple (>1) holders of the requested data.
system.tol2bus.snoop_filter.hit_single_requests       137711                       # Number of requests hitting in the snoop filter with a single holder of the requested data.
system.tol2bus.snoop_filter.hit_single_snoops           26                       # Number of snoops hitting in the snoop filter with a single holder of the requested data.
system.tol2bus.snoop_filter.tot_requests       275955                       # Total number of requests made to the snoop filter.
system.tol2bus.snoop_filter.tot_snoops             26                       # Total number of snoops made to the snoop filter.
system.membus.pwrStateResidencyTicks::UNDEFINED 9087444275216                       # Cumulative time (in ticks) in various power states
system.membus.trans_dist::ReadResp             110901                       # Transaction distribution
system.membus.trans_dist::WritebackDirty        24140                       # Transaction distribution
system.membus.trans_dist::CleanEvict           109981                       # Transaction distribution
system.membus.trans_dist::ReadExReq             27342                       # Transaction distribution
system.membus.trans_dist::ReadExResp            27342                       # Transaction distribution
system.membus.trans_dist::ReadSharedReq        110901                       # Transaction distribution
system.membus.pkt_count_system.l2.mem_side::system.mem_ctrls.port       410607                       # Packet count per connected master and slave (bytes)
system.membus.pkt_count_system.l2.mem_side::total       410607                       # Packet count per connected master and slave (bytes)
system.membus.pkt_count::total                 410607                       # Packet count per connected master and slave (bytes)
system.membus.pkt_size_system.l2.mem_side::system.mem_ctrls.port     10392512                       # Cumulative packet size per connected master and slave (bytes)
system.membus.pkt_size_system.l2.mem_side::total     10392512                       # Cumulative packet size per connected master and slave (bytes)
system.membus.pkt_size::total                10392512                       # Cumulative packet size per connected master and slave (bytes)
system.membus.snoops                                0                       # Total snoops (count)
system.membus.snoopTraffic                          0                       # Total snoop traffic (bytes)
system.membus.snoop_fanout::samples            138243                       # Request fanout histogram
system.membus.snoop_fanout::mean                    0                       # Request fanout histogram
system.membus.snoop_fanout::stdev                   0                       # Request fanout histogram
system.membus.snoop_fanout::underflows              0      0.00%      0.00% # Request fanout histogram
system.membus.snoop_fanout::0                  138243    100.00%    100.00% # Request fanout histogram
system.membus.snoop_fanout::1                       0      0.00%    100.00% # Request fanout histogram
system.membus.snoop_fanout::overflows               0      0.00%    100.00% # Request fanout histogram
system.membus.snoop_fanout::min_value               0                       # Request fanout histogram
system.membus.snoop_fanout::max_value               0                       # Request fanout histogram
system.membus.snoop_fanout::total              138243                       # Request fanout histogram
system.membus.reqLayer2.occupancy           450185716                       # Layer occupancy (ticks)
system.membus.reqLayer2.utilization               9.7                       # Layer utilization (%)
system.membus.respLayer1.occupancy          724224146                       # Layer occupancy (ticks)
system.membus.respLayer1.utilization             15.6                       # Layer utilization (%)
system.switch_cpus.pwrStateResidencyTicks::OFF   4637127216                       # Cumulative time (in ticks) in various power states
system.switch_cpus.dtb.walker.pwrStateResidencyTicks::UNDEFINED 9087444275216                       # Cumulative time (in ticks) in various power states
system.switch_cpus.itb.walker.pwrStateResidencyTicks::UNDEFINED 9087444275216                       # Cumulative time (in ticks) in various power states
system.tol2bus.pwrStateResidencyTicks::UNDEFINED 9087444275216                       # Cumulative time (in ticks) in various power states
system.tol2bus.trans_dist::ReadResp            110901                       # Transaction distribution
system.tol2bus.trans_dist::WritebackDirty        51087                       # Transaction distribution
system.tol2bus.trans_dist::CleanEvict          220771                       # Transaction distribution
system.tol2bus.trans_dist::ReadExReq            27343                       # Transaction distribution
system.tol2bus.trans_dist::ReadExResp           27342                       # Transaction distribution
system.tol2bus.trans_dist::ReadCleanReq            20                       # Transaction distribution
system.tol2bus.trans_dist::ReadSharedReq       110881                       # Transaction distribution
system.tol2bus.pkt_count_system.cpu.icache.mem_side::system.l2.cpu_side           40                       # Packet count per connected master and slave (bytes)
system.tol2bus.pkt_count_system.cpu.dcache.mem_side::system.l2.cpu_side       414158                       # Packet count per connected master and slave (bytes)
system.tol2bus.pkt_count::total                414198                       # Packet count per connected master and slave (bytes)
system.tol2bus.pkt_size_system.cpu.icache.mem_side::system.l2.cpu_side         1280                       # Cumulative packet size per connected master and slave (bytes)
system.tol2bus.pkt_size_system.cpu.dcache.mem_side::system.l2.cpu_side     10570880                       # Cumulative packet size per connected master and slave (bytes)
system.tol2bus.pkt_size::total               10572160                       # Cumulative packet size per connected master and slave (bytes)
system.tol2bus.snoops                          134147                       # Total snoops (count)
system.tol2bus.snoopTraffic                   1544960                       # Total snoop traffic (bytes)
system.tol2bus.snoop_fanout::samples           272391                       # Request fanout histogram
system.tol2bus.snoop_fanout::mean            0.000095                       # Request fanout histogram
system.tol2bus.snoop_fanout::stdev           0.009769                       # Request fanout histogram
system.tol2bus.snoop_fanout::underflows             0      0.00%      0.00% # Request fanout histogram
system.tol2bus.snoop_fanout::0                 272365     99.99%     99.99% # Request fanout histogram
system.tol2bus.snoop_fanout::1                     26      0.01%    100.00% # Request fanout histogram
system.tol2bus.snoop_fanout::2                      0      0.00%    100.00% # Request fanout histogram
system.tol2bus.snoop_fanout::3                      0      0.00%    100.00% # Request fanout histogram
system.tol2bus.snoop_fanout::4                      0      0.00%    100.00% # Request fanout histogram
system.tol2bus.snoop_fanout::overflows              0      0.00%    100.00% # Request fanout histogram
system.tol2bus.snoop_fanout::min_value              0                       # Request fanout histogram
system.tol2bus.snoop_fanout::max_value              1                       # Request fanout histogram
system.tol2bus.snoop_fanout::total             272391                       # Request fanout histogram
system.tol2bus.reqLayer0.occupancy           91696354                       # Layer occupancy (ticks)
system.tol2bus.reqLayer0.utilization              2.0                       # Layer utilization (%)
system.tol2bus.respLayer1.occupancy         115275480                       # Layer occupancy (ticks)
system.tol2bus.respLayer1.utilization             2.5                       # Layer utilization (%)
system.tol2bus.respLayer0.occupancy             14178                       # Layer occupancy (ticks)
system.tol2bus.respLayer0.utilization             0.0                       # Layer utilization (%)
system.voltage_domain.voltage                       1                       # Voltage in Volts
system.clk_domain.clock                          1000                       # Clock period in ticks
system.l2.pwrStateResidencyTicks::UNDEFINED 9087444275216                       # Cumulative time (in ticks) in various power states
system.l2.demand_misses::.cpu.inst                  3                       # number of demand (read+write) misses
system.l2.demand_misses::.cpu.data                  3                       # number of demand (read+write) misses
system.l2.demand_misses::.switch_cpus.inst           17                       # number of demand (read+write) misses
system.l2.demand_misses::.switch_cpus.data       138221                       # number of demand (read+write) misses
system.l2.demand_misses::total                 138244                       # number of demand (read+write) misses
system.l2.overall_misses::.cpu.inst                 3                       # number of overall misses
system.l2.overall_misses::.cpu.data                 3                       # number of overall misses
system.l2.overall_misses::.switch_cpus.inst           17                       # number of overall misses
system.l2.overall_misses::.switch_cpus.data       138221                       # number of overall misses
system.l2.overall_misses::total                138244                       # number of overall misses
system.l2.demand_miss_latency::.switch_cpus.inst      1162040                       # number of demand (read+write) miss cycles
system.l2.demand_miss_latency::.switch_cpus.data  11144989976                       # number of demand (read+write) miss cycles
system.l2.demand_miss_latency::total      11146152016                       # number of demand (read+write) miss cycles
system.l2.overall_miss_latency::.switch_cpus.inst      1162040                       # number of overall miss cycles
system.l2.overall_miss_latency::.switch_cpus.data  11144989976                       # number of overall miss cycles
system.l2.overall_miss_latency::total     11146152016                       # number of overall miss cycles
system.l2.demand_accesses::.cpu.inst                3                       # number of demand (read+write) accesses
system.l2.demand_accesses::.cpu.data                3                       # number of demand (read+write) accesses
system.l2.demand_accesses::.switch_cpus.inst           17                       # number of demand (read+write) accesses
system.l2.demand_accesses::.switch_cpus.data       138221                       # number of demand (read+write) accesses
system.l2.demand_accesses::total               138244                       # number of demand (read+write) accesses
system.l2.overall_accesses::.cpu.inst               3                       # number of overall (read+write) accesses
system.l2.overall_accesses::.cpu.data               3                       # number of overall (read+write) accesses
system.l2.overall_accesses::.switch_cpus.inst           17                       # number of overall (read+write) accesses
system.l2.overall_accesses::.switch_cpus.data       138221                       # number of overall (read+write) accesses
system.l2.overall_accesses::total              138244                       # number of overall (read+write) accesses
system.l2.demand_miss_rate::.cpu.inst               1                       # miss rate for demand accesses
system.l2.demand_miss_rate::.cpu.data               1                       # miss rate for demand accesses
system.l2.demand_miss_rate::.switch_cpus.inst            1                       # miss rate for demand accesses
system.l2.demand_miss_rate::.switch_cpus.data            1                       # miss rate for demand accesses
system.l2.demand_miss_rate::total                   1                       # miss rate for demand accesses
system.l2.overall_miss_rate::.cpu.inst              1                       # miss rate for overall accesses
system.l2.overall_miss_rate::.cpu.data              1                       # miss rate for overall accesses
system.l2.overall_miss_rate::.switch_cpus.inst            1                       # miss rate for overall accesses
system.l2.overall_miss_rate::.switch_cpus.data            1                       # miss rate for overall accesses
system.l2.overall_miss_rate::total                  1                       # miss rate for overall accesses
system.l2.demand_avg_miss_latency::.switch_cpus.inst 68355.294118                       # average overall miss latency
system.l2.demand_avg_miss_latency::.switch_cpus.data 80631.669399                       # average overall miss latency
system.l2.demand_avg_miss_latency::total 80626.660224                       # average overall miss latency
system.l2.overall_avg_miss_latency::.switch_cpus.inst 68355.294118                       # average overall miss latency
system.l2.overall_avg_miss_latency::.switch_cpus.data 80631.669399                       # average overall miss latency
system.l2.overall_avg_miss_latency::total 80626.660224                       # average overall miss latency
system.l2.blocked_cycles::no_mshrs                  0                       # number of cycles access was blocked
system.l2.blocked_cycles::no_targets                0                       # number of cycles access was blocked
system.l2.blocked::no_mshrs                         0                       # number of cycles access was blocked
system.l2.blocked::no_targets                       0                       # number of cycles access was blocked
system.l2.avg_blocked_cycles::no_mshrs            nan                       # average number of cycles each access was blocked
system.l2.avg_blocked_cycles::no_targets          nan                       # average number of cycles each access was blocked
system.l2.writebacks::.writebacks               24140                       # number of writebacks
system.l2.writebacks::total                     24140                       # number of writebacks
system.l2.demand_mshr_misses::.switch_cpus.inst           17                       # number of demand (read+write) MSHR misses
system.l2.demand_mshr_misses::.switch_cpus.data       138221                       # number of demand (read+write) MSHR misses
system.l2.demand_mshr_misses::total            138238                       # number of demand (read+write) MSHR misses
system.l2.overall_mshr_misses::.switch_cpus.inst           17                       # number of overall MSHR misses
system.l2.overall_mshr_misses::.switch_cpus.data       138221                       # number of overall MSHR misses
system.l2.overall_mshr_misses::total           138238                       # number of overall MSHR misses
system.l2.demand_mshr_miss_latency::.switch_cpus.inst      1065082                       # number of demand (read+write) MSHR miss cycles
system.l2.demand_mshr_miss_latency::.switch_cpus.data  10357821476                       # number of demand (read+write) MSHR miss cycles
system.l2.demand_mshr_miss_latency::total  10358886558                       # number of demand (read+write) MSHR miss cycles
system.l2.overall_mshr_miss_latency::.switch_cpus.inst      1065082                       # number of overall MSHR miss cycles
system.l2.overall_mshr_miss_latency::.switch_cpus.data  10357821476                       # number of overall MSHR miss cycles
system.l2.overall_mshr_miss_latency::total  10358886558                       # number of overall MSHR miss cycles
system.l2.demand_mshr_miss_rate::.switch_cpus.inst            1                       # mshr miss rate for demand accesses
system.l2.demand_mshr_miss_rate::.switch_cpus.data            1                       # mshr miss rate for demand accesses
system.l2.demand_mshr_miss_rate::total       0.999957                       # mshr miss rate for demand accesses
system.l2.overall_mshr_miss_rate::.switch_cpus.inst            1                       # mshr miss rate for overall accesses
system.l2.overall_mshr_miss_rate::.switch_cpus.data            1                       # mshr miss rate for overall accesses
system.l2.overall_mshr_miss_rate::total      0.999957                       # mshr miss rate for overall accesses
system.l2.demand_avg_mshr_miss_latency::.switch_cpus.inst 62651.882353                       # average overall mshr miss latency
system.l2.demand_avg_mshr_miss_latency::.switch_cpus.data 74936.670086                       # average overall mshr miss latency
system.l2.demand_avg_mshr_miss_latency::total 74935.159348                       # average overall mshr miss latency
system.l2.overall_avg_mshr_miss_latency::.switch_cpus.inst 62651.882353                       # average overall mshr miss latency
system.l2.overall_avg_mshr_miss_latency::.switch_cpus.data 74936.670086                       # average overall mshr miss latency
system.l2.overall_avg_mshr_miss_latency::total 74935.159348                       # average overall mshr miss latency
system.l2.replacements                         134147                       # number of replacements
system.l2.csize                                     0                       # Cache sizes in total
system.l2.WritebackDirty_hits::.writebacks        26947                       # number of WritebackDirty hits
system.l2.WritebackDirty_hits::total            26947                       # number of WritebackDirty hits
system.l2.WritebackDirty_accesses::.writebacks        26947                       # number of WritebackDirty accesses(hits+misses)
system.l2.WritebackDirty_accesses::total        26947                       # number of WritebackDirty accesses(hits+misses)
system.l2.ReadExReq_misses::.cpu.data               1                       # number of ReadExReq misses
system.l2.ReadExReq_misses::.switch_cpus.data        27342                       # number of ReadExReq misses
system.l2.ReadExReq_misses::total               27343                       # number of ReadExReq misses
system.l2.ReadExReq_miss_latency::.switch_cpus.data   1833306306                       # number of ReadExReq miss cycles
system.l2.ReadExReq_miss_latency::total    1833306306                       # number of ReadExReq miss cycles
system.l2.ReadExReq_accesses::.cpu.data             1                       # number of ReadExReq accesses(hits+misses)
system.l2.ReadExReq_accesses::.switch_cpus.data        27342                       # number of ReadExReq accesses(hits+misses)
system.l2.ReadExReq_accesses::total             27343                       # number of ReadExReq accesses(hits+misses)
system.l2.ReadExReq_miss_rate::.cpu.data            1                       # miss rate for ReadExReq accesses
system.l2.ReadExReq_miss_rate::.switch_cpus.data            1                       # miss rate for ReadExReq accesses
system.l2.ReadExReq_miss_rate::total                1                       # miss rate for ReadExReq accesses
system.l2.ReadExReq_avg_miss_latency::.switch_cpus.data 67050.921878                       # average ReadExReq miss latency
system.l2.ReadExReq_avg_miss_latency::total 67048.469663                       # average ReadExReq miss latency
system.l2.ReadExReq_mshr_misses::.switch_cpus.data        27342                       # number of ReadExReq MSHR misses
system.l2.ReadExReq_mshr_misses::total          27342                       # number of ReadExReq MSHR misses
system.l2.ReadExReq_mshr_miss_latency::.switch_cpus.data   1677477542                       # number of ReadExReq MSHR miss cycles
system.l2.ReadExReq_mshr_miss_latency::total   1677477542                       # number of ReadExReq MSHR miss cycles
system.l2.ReadExReq_mshr_miss_rate::.switch_cpus.data            1                       # mshr miss rate for ReadExReq accesses
system.l2.ReadExReq_mshr_miss_rate::total     0.999963                       # mshr miss rate for ReadExReq accesses
system.l2.ReadExReq_avg_mshr_miss_latency::.switch_cpus.data 61351.676615                       # average ReadExReq mshr miss latency
system.l2.ReadExReq_avg_mshr_miss_latency::total 61351.676615                       # average ReadExReq mshr miss latency
system.l2.ReadCleanReq_misses::.cpu.inst            3                       # number of ReadCleanReq misses
system.l2.ReadCleanReq_misses::.switch_cpus.inst           17                       # number of ReadCleanReq misses
system.l2.ReadCleanReq_misses::total               20                       # number of ReadCleanReq misses
system.l2.ReadCleanReq_miss_latency::.switch_cpus.inst      1162040                       # number of ReadCleanReq miss cycles
system.l2.ReadCleanReq_miss_latency::total      1162040                       # number of ReadCleanReq miss cycles
system.l2.ReadCleanReq_accesses::.cpu.inst            3                       # number of ReadCleanReq accesses(hits+misses)
system.l2.ReadCleanReq_accesses::.switch_cpus.inst           17                       # number of ReadCleanReq accesses(hits+misses)
system.l2.ReadCleanReq_accesses::total             20                       # number of ReadCleanReq accesses(hits+misses)
system.l2.ReadCleanReq_miss_rate::.cpu.inst            1                       # miss rate for ReadCleanReq accesses
system.l2.ReadCleanReq_miss_rate::.switch_cpus.inst            1                       # miss rate for ReadCleanReq accesses
system.l2.ReadCleanReq_miss_rate::total             1                       # miss rate for ReadCleanReq accesses
system.l2.ReadCleanReq_avg_miss_latency::.switch_cpus.inst 68355.294118                       # average ReadCleanReq miss latency
system.l2.ReadCleanReq_avg_miss_latency::total        58102                       # average ReadCleanReq miss latency
system.l2.ReadCleanReq_mshr_misses::.switch_cpus.inst           17                       # number of ReadCleanReq MSHR misses
system.l2.ReadCleanReq_mshr_misses::total           17                       # number of ReadCleanReq MSHR misses
system.l2.ReadCleanReq_mshr_miss_latency::.switch_cpus.inst      1065082                       # number of ReadCleanReq MSHR miss cycles
system.l2.ReadCleanReq_mshr_miss_latency::total      1065082                       # number of ReadCleanReq MSHR miss cycles
system.l2.ReadCleanReq_mshr_miss_rate::.switch_cpus.inst            1                       # mshr miss rate for ReadCleanReq accesses
system.l2.ReadCleanReq_mshr_miss_rate::total     0.850000                       # mshr miss rate for ReadCleanReq accesses
system.l2.ReadCleanReq_avg_mshr_miss_latency::.switch_cpus.inst 62651.882353                       # average ReadCleanReq mshr miss latency
system.l2.ReadCleanReq_avg_mshr_miss_latency::total 62651.882353                       # average ReadCleanReq mshr miss latency
system.l2.ReadSharedReq_misses::.cpu.data            2                       # number of ReadSharedReq misses
system.l2.ReadSharedReq_misses::.switch_cpus.data       110879                       # number of ReadSharedReq misses
system.l2.ReadSharedReq_misses::total          110881                       # number of ReadSharedReq misses
system.l2.ReadSharedReq_miss_latency::.switch_cpus.data   9311683670                       # number of ReadSharedReq miss cycles
system.l2.ReadSharedReq_miss_latency::total   9311683670                       # number of ReadSharedReq miss cycles
system.l2.ReadSharedReq_accesses::.cpu.data            2                       # number of ReadSharedReq accesses(hits+misses)
system.l2.ReadSharedReq_accesses::.switch_cpus.data       110879                       # number of ReadSharedReq accesses(hits+misses)
[...]
system.cpu.itb_walker_cache.blocked_cycles::no_mshrs            0                       # number of cycles access was blocked
system.cpu.itb_walker_cache.blocked_cycles::no_targets            0                       # number of cycles access was blocked
system.cpu.itb_walker_cache.blocked::no_mshrs            0                       # number of cycles access was blocked
system.cpu.itb_walker_cache.blocked::no_targets            0                       # number of cycles access was blocked
system.cpu.itb_walker_cache.avg_blocked_cycles::no_mshrs          nan                       # average number of cycles each access was blocked
system.cpu.itb_walker_cache.avg_blocked_cycles::no_targets          nan                       # average number of cycles each access was blocked
system.cpu.itb_walker_cache.replacements            0                       # number of replacements
system.cpu.itb_walker_cache.csize                   0                       # Cache sizes in total
system.cpu.itb_walker_cache.tags.pwrStateResidencyTicks::UNDEFINED 9087444275216                       # Cumulative time (in ticks) in various power states
system.cpu.itb_walker_cache.tags.tagsinuse            0                       # Cycle average of tags in use
system.cpu.itb_walker_cache.tags.total_refs            0                       # Total number of references to valid blocks.
system.cpu.itb_walker_cache.tags.sampled_refs            0                       # Sample count of references to valid blocks.
system.cpu.itb_walker_cache.tags.avg_refs          nan                       # Average number of references to valid blocks.
system.cpu.itb_walker_cache.tags.warmup_cycle            0                       # Cycle when the warmup percentage was hit.
system.cpu.itb_walker_cache.tags.tag_accesses            0                       # Number of tag accesses
system.cpu.itb_walker_cache.tags.data_accesses            0                       # Number of data accesses
system.cpu.itb.walker.pwrStateResidencyTicks::UNDEFINED 9087444275216                       # Cumulative time (in ticks) in various power states
system.cpu.dtb_walker_cache.pwrStateResidencyTicks::UNDEFINED 9087444275216                       # Cumulative time (in ticks) in various power states
system.cpu.dtb_walker_cache.blocked_cycles::no_mshrs            0                       # number of cycles access was blocked
system.cpu.dtb_walker_cache.blocked_cycles::no_targets            0                       # number of cycles access was blocked
system.cpu.dtb_walker_cache.blocked::no_mshrs            0                       # number of cycles access was blocked
system.cpu.dtb_walker_cache.blocked::no_targets            0                       # number of cycles access was blocked
system.cpu.dtb_walker_cache.avg_blocked_cycles::no_mshrs          nan                       # average number of cycles each access was blocked
system.cpu.dtb_walker_cache.avg_blocked_cycles::no_targets          nan                       # average number of cycles each access was blocked
system.cpu.dtb_walker_cache.replacements            0                       # number of replacements
system.cpu.dtb_walker_cache.csize                   0                       # Cache sizes in total
system.cpu.dtb_walker_cache.tags.pwrStateResidencyTicks::UNDEFINED 9087444275216                       # Cumulative time (in ticks) in various power states
system.cpu.dtb_walker_cache.tags.tagsinuse            0                       # Cycle average of tags in use
system.cpu.dtb_walker_cache.tags.total_refs            0                       # Total number of references to valid blocks.
system.cpu.dtb_walker_cache.tags.sampled_refs            0                       # Sample count of references to valid blocks.
system.cpu.dtb_walker_cache.tags.avg_refs          nan                       # Average number of references to valid blocks.
system.cpu.dtb_walker_cache.tags.warmup_cycle            0                       # Cycle when the warmup percentage was hit.
system.cpu.dtb_walker_cache.tags.tag_accesses            0                       # Number of tag accesses
system.cpu.dtb_walker_cache.tags.data_accesses            0                       # Number of data accesses
system.cpu.dcache.pwrStateResidencyTicks::UNDEFINED 9087444275216                       # Cumulative time (in ticks) in various power states
system.cpu.dcache.demand_hits::.cpu.data            1                       # number of demand (read+write) hits
system.cpu.dcache.demand_hits::.switch_cpus.data      2407012                       # number of demand (read+write) hits
system.cpu.dcache.demand_hits::total          2407013                       # number of demand (read+write) hits
system.cpu.dcache.overall_hits::.cpu.data            1                       # number of overall hits
system.cpu.dcache.overall_hits::.switch_cpus.data      2407012                       # number of overall hits
system.cpu.dcache.overall_hits::total         2407013                       # number of overall hits
system.cpu.dcache.demand_misses::.cpu.data            3                       # number of demand (read+write) misses
system.cpu.dcache.demand_misses::.switch_cpus.data       441769                       # number of demand (read+write) misses
system.cpu.dcache.demand_misses::total         441772                       # number of demand (read+write) misses
system.cpu.dcache.overall_misses::.cpu.data            3                       # number of overall misses
system.cpu.dcache.overall_misses::.switch_cpus.data       441769                       # number of overall misses
system.cpu.dcache.overall_misses::total        441772                       # number of overall misses
system.cpu.dcache.demand_miss_latency::.switch_cpus.data  26279744212                       # number of demand (read+write) miss cycles
system.cpu.dcache.demand_miss_latency::total  26279744212                       # number of demand (read+write) miss cycles
system.cpu.dcache.overall_miss_latency::.switch_cpus.data  26279744212                       # number of overall miss cycles
system.cpu.dcache.overall_miss_latency::total  26279744212                       # number of overall miss cycles
system.cpu.dcache.demand_accesses::.cpu.data            4                       # number of demand (read+write) accesses
system.cpu.dcache.demand_accesses::.switch_cpus.data      2848781                       # number of demand (read+write) accesses
system.cpu.dcache.demand_accesses::total      2848785                       # number of demand (read+write) accesses
system.cpu.dcache.overall_accesses::.cpu.data            4                       # number of overall (read+write) accesses
system.cpu.dcache.overall_accesses::.switch_cpus.data      2848781                       # number of overall (read+write) accesses
system.cpu.dcache.overall_accesses::total      2848785                       # number of overall (read+write) accesses
system.cpu.dcache.demand_miss_rate::.cpu.data     0.750000                       # miss rate for demand accesses
system.cpu.dcache.demand_miss_rate::.switch_cpus.data     0.155073                       # miss rate for demand accesses
system.cpu.dcache.demand_miss_rate::total     0.155074                       # miss rate for demand accesses
system.cpu.dcache.overall_miss_rate::.cpu.data     0.750000                       # miss rate for overall accesses
system.cpu.dcache.overall_miss_rate::.switch_cpus.data     0.155073                       # miss rate for overall accesses
system.cpu.dcache.overall_miss_rate::total     0.155074                       # miss rate for overall accesses
system.cpu.dcache.demand_avg_miss_latency::.switch_cpus.data 59487.524503                       # average overall miss latency
system.cpu.dcache.demand_avg_miss_latency::total 59487.120533                       # average overall miss latency
system.cpu.dcache.overall_avg_miss_latency::.switch_cpus.data 59487.524503                       # average overall miss latency
system.cpu.dcache.overall_avg_miss_latency::total 59487.120533                       # average overall miss latency
system.cpu.dcache.blocked_cycles::no_mshrs      4142063                       # number of cycles access was blocked
system.cpu.dcache.blocked_cycles::no_targets            0                       # number of cycles access was blocked
system.cpu.dcache.blocked::no_mshrs             49029                       # number of cycles access was blocked
system.cpu.dcache.blocked::no_targets               0                       # number of cycles access was blocked
system.cpu.dcache.avg_blocked_cycles::no_mshrs    84.481898                       # average number of cycles each access was blocked
system.cpu.dcache.avg_blocked_cycles::no_targets          nan                       # average number of cycles each access was blocked
system.cpu.dcache.writebacks::.writebacks        26947                       # number of writebacks
system.cpu.dcache.writebacks::total             26947                       # number of writebacks
system.cpu.dcache.demand_mshr_hits::.switch_cpus.data       303548                       # number of demand (read+write) MSHR hits
system.cpu.dcache.demand_mshr_hits::total       303548                       # number of demand (read+write) MSHR hits
system.cpu.dcache.overall_mshr_hits::.switch_cpus.data       303548                       # number of overall MSHR hits
system.cpu.dcache.overall_mshr_hits::total       303548                       # number of overall MSHR hits
system.cpu.dcache.demand_mshr_misses::.switch_cpus.data       138221                       # number of demand (read+write) MSHR misses
system.cpu.dcache.demand_mshr_misses::total       138221                       # number of demand (read+write) MSHR misses
system.cpu.dcache.overall_mshr_misses::.switch_cpus.data       138221                       # number of overall MSHR misses
system.cpu.dcache.overall_mshr_misses::total       138221                       # number of overall MSHR misses
system.cpu.dcache.demand_mshr_miss_latency::.switch_cpus.data  11263801894                       # number of demand (read+write) MSHR miss cycles
system.cpu.dcache.demand_mshr_miss_latency::total  11263801894                       # number of demand (read+write) MSHR miss cycles
system.cpu.dcache.overall_mshr_miss_latency::.switch_cpus.data  11263801894                       # number of overall MSHR miss cycles
system.cpu.dcache.overall_mshr_miss_latency::total  11263801894                       # number of overall MSHR miss cycles
system.cpu.dcache.demand_mshr_miss_rate::.switch_cpus.data     0.048519                       # mshr miss rate for demand accesses
system.cpu.dcache.demand_mshr_miss_rate::total     0.048519                       # mshr miss rate for demand accesses
system.cpu.dcache.overall_mshr_miss_rate::.switch_cpus.data     0.048519                       # mshr miss rate for overall accesses
system.cpu.dcache.overall_mshr_miss_rate::total     0.048519                       # mshr miss rate for overall accesses
system.cpu.dcache.demand_avg_mshr_miss_latency::.switch_cpus.data 81491.248754                       # average overall mshr miss latency
system.cpu.dcache.demand_avg_mshr_miss_latency::total 81491.248754                       # average overall mshr miss latency
system.cpu.dcache.overall_avg_mshr_miss_latency::.switch_cpus.data 81491.248754                       # average overall mshr miss latency
system.cpu.dcache.overall_avg_mshr_miss_latency::total 81491.248754                       # average overall mshr miss latency
system.cpu.dcache.replacements                 137711                       # number of replacements
system.cpu.dcache.csize                      19047804                       # Cache sizes in total
system.cpu.dcache.ReadReq_hits::.switch_cpus.data      1972629                       # number of ReadReq hits
system.cpu.dcache.ReadReq_hits::total         1972629                       # number of ReadReq hits
system.cpu.dcache.ReadReq_misses::.cpu.data            2                       # number of ReadReq misses
system.cpu.dcache.ReadReq_misses::.switch_cpus.data       414427                       # number of ReadReq misses
system.cpu.dcache.ReadReq_misses::total        414429                       # number of ReadReq misses
system.cpu.dcache.ReadReq_miss_latency::.switch_cpus.data  24408433916                       # number of ReadReq miss cycles
system.cpu.dcache.ReadReq_miss_latency::total  24408433916                       # number of ReadReq miss cycles
system.cpu.dcache.ReadReq_accesses::.cpu.data            2                       # number of ReadReq accesses(hits+misses)
system.cpu.dcache.ReadReq_accesses::.switch_cpus.data      2387056                       # number of ReadReq accesses(hits+misses)
system.cpu.dcache.ReadReq_accesses::total      2387058                       # number of ReadReq accesses(hits+misses)
system.cpu.dcache.ReadReq_miss_rate::.cpu.data            1                       # miss rate for ReadReq accesses
system.cpu.dcache.ReadReq_miss_rate::.switch_cpus.data     0.173614                       # miss rate for ReadReq accesses
system.cpu.dcache.ReadReq_miss_rate::total     0.173615                       # miss rate for ReadReq accesses
system.cpu.dcache.ReadReq_avg_miss_latency::.switch_cpus.data 58896.823605                       # average ReadReq miss latency
system.cpu.dcache.ReadReq_avg_miss_latency::total 58896.539373                       # average ReadReq miss latency
system.cpu.dcache.ReadReq_mshr_hits::.switch_cpus.data       303548                       # number of ReadReq MSHR hits
system.cpu.dcache.ReadReq_mshr_hits::total       303548                       # number of ReadReq MSHR hits
system.cpu.dcache.ReadReq_mshr_misses::.switch_cpus.data       110879                       # number of ReadReq MSHR misses
system.cpu.dcache.ReadReq_mshr_misses::total       110879                       # number of ReadReq MSHR misses
system.cpu.dcache.ReadReq_mshr_miss_latency::.switch_cpus.data   9407693194                       # number of ReadReq MSHR miss cycles
system.cpu.dcache.ReadReq_mshr_miss_latency::total   9407693194                       # number of ReadReq MSHR miss cycles
system.cpu.dcache.ReadReq_mshr_miss_rate::.switch_cpus.data     0.046450                       # mshr miss rate for ReadReq accesses
system.cpu.dcache.ReadReq_mshr_miss_rate::total     0.046450                       # mshr miss rate for ReadReq accesses
system.cpu.dcache.ReadReq_avg_mshr_miss_latency::.switch_cpus.data 84846.483049                       # average ReadReq mshr miss latency
system.cpu.dcache.ReadReq_avg_mshr_miss_latency::total 84846.483049                       # average ReadReq mshr miss latency
system.cpu.dcache.WriteReq_hits::.cpu.data            1                       # number of WriteReq hits
system.cpu.dcache.WriteReq_hits::.switch_cpus.data       434383                       # number of WriteReq hits
system.cpu.dcache.WriteReq_hits::total         434384                       # number of WriteReq hits
system.cpu.dcache.WriteReq_misses::.cpu.data            1                       # number of WriteReq misses
system.cpu.dcache.WriteReq_misses::.switch_cpus.data        27342                       # number of WriteReq misses
system.cpu.dcache.WriteReq_misses::total        27343                       # number of WriteReq misses
system.cpu.dcache.WriteReq_miss_latency::.switch_cpus.data   1871310296                       # number of WriteReq miss cycles
system.cpu.dcache.WriteReq_miss_latency::total   1871310296                       # number of WriteReq miss cycles
system.cpu.dcache.WriteReq_accesses::.cpu.data            2                       # number of WriteReq accesses(hits+misses)
system.cpu.dcache.WriteReq_accesses::.switch_cpus.data       461725                       # number of WriteReq accesses(hits+misses)
system.cpu.dcache.WriteReq_accesses::total       461727                       # number of WriteReq accesses(hits+misses)
system.cpu.dcache.WriteReq_miss_rate::.cpu.data     0.500000                       # miss rate for WriteReq accesses
system.cpu.dcache.WriteReq_miss_rate::.switch_cpus.data     0.059217                       # miss rate for WriteReq accesses
system.cpu.dcache.WriteReq_miss_rate::total     0.059219                       # miss rate for WriteReq accesses
system.cpu.dcache.WriteReq_avg_miss_latency::.switch_cpus.data 68440.871041                       # average WriteReq miss latency
system.cpu.dcache.WriteReq_avg_miss_latency::total 68438.367992                       # average WriteReq miss latency
system.cpu.dcache.WriteReq_mshr_misses::.switch_cpus.data        27342                       # number of WriteReq MSHR misses
system.cpu.dcache.WriteReq_mshr_misses::total        27342                       # number of WriteReq MSHR misses
system.cpu.dcache.WriteReq_mshr_miss_latency::.switch_cpus.data   1856108700                       # number of WriteReq MSHR miss cycles
system.cpu.dcache.WriteReq_mshr_miss_latency::total   1856108700                       # number of WriteReq MSHR miss cycles
system.cpu.dcache.WriteReq_mshr_miss_rate::.switch_cpus.data     0.059217                       # mshr miss rate for WriteReq accesses
system.cpu.dcache.WriteReq_mshr_miss_rate::total     0.059217                       # mshr miss rate for WriteReq accesses
system.cpu.dcache.WriteReq_avg_mshr_miss_latency::.switch_cpus.data 67884.891376                       # average WriteReq mshr miss latency
system.cpu.dcache.WriteReq_avg_mshr_miss_latency::total 67884.891376                       # average WriteReq mshr miss latency
system.cpu.dcache.tags.pwrStateResidencyTicks::UNDEFINED 9087444275216                       # Cumulative time (in ticks) in various power states
system.cpu.dcache.tags.tagsinuse             0.259352                       # Cycle average of tags in use
system.cpu.dcache.tags.total_refs             2545236                       # Total number of references to valid blocks.
system.cpu.dcache.tags.sampled_refs            138223                       # Sample count of references to valid blocks.
system.cpu.dcache.tags.avg_refs             18.413983                       # Average number of references to valid blocks.
system.cpu.dcache.tags.warmup_cycle      9082807149870                       # Cycle when the warmup percentage was hit.
system.cpu.dcache.tags.occ_blocks::.cpu.data     0.001029                       # Average occupied blocks per requestor
system.cpu.dcache.tags.occ_blocks::.switch_cpus.data     0.258323                       # Average occupied blocks per requestor
system.cpu.dcache.tags.occ_percent::.cpu.data     0.000002                       # Average percentage of cache occupancy
system.cpu.dcache.tags.occ_percent::.switch_cpus.data     0.000505                       # Average percentage of cache occupancy
system.cpu.dcache.tags.occ_percent::total     0.000507                       # Average percentage of cache occupancy
system.cpu.dcache.tags.occ_task_id_blocks::1024          512                       # Occupied blocks per task id
system.cpu.dcache.tags.age_task_id_blocks_1024::0          147                       # Occupied blocks per task id
system.cpu.dcache.tags.age_task_id_blocks_1024::1          359                       # Occupied blocks per task id
system.cpu.dcache.tags.age_task_id_blocks_1024::3            6                       # Occupied blocks per task id
system.cpu.dcache.tags.occ_task_id_percent::1024            1                       # Percentage of cache occupancy per task id
system.cpu.dcache.tags.tag_accesses          22928503                       # Number of tag accesses
system.cpu.dcache.tags.data_accesses         22928503                       # Number of data accesses

---------- End Simulation Statistics   ----------
