
---------- Begin Simulation Statistics ----------
final_tick                               212615599848                       # Number of ticks from beginning of simulation (restored from checkpoints and never reset)
host_inst_rate                                  28262                       # Simulator instruction rate (inst/s)
host_mem_usage                                 660384                       # Number of bytes of host memory used
host_op_rate                                    55748                       # Simulator op (including micro ops) rate (op/s)
host_seconds                                   707.66                       # Real time elapsed on the host
host_tick_rate                              300450575                       # Simulator tick rate (ticks/s)
sim_freq                                 1000000000000                       # Frequency of simulated ticks
sim_insts                                    20000001                       # Number of instructions simulated
sim_ops                                      39450571                       # Number of ops (including micro ops) simulated
sim_seconds                                  0.212616                       # Number of seconds simulated
sim_ticks                                212615599848                       # Number of ticks simulated
system.cpu.cc_regfile_reads                  15141897                       # number of cc regfile reads
system.cpu.cc_regfile_writes                 12347572                       # number of cc regfile writes
system.cpu.committedInsts                    20000001                       # Number of Instructions Simulated
system.cpu.committedOps                      39450571                       # Number of Ops (including micro ops) Simulated
system.cpu.cpi                              38.240214                       # CPI: Cycles Per Instruction
system.cpu.cpi_total                        38.240214                       # CPI: Total CPI of All Threads
system.cpu.fp_regfile_reads                  23355513                       # number of floating regfile reads
system.cpu.fp_regfile_writes                      296                       # number of floating regfile writes
system.cpu.idleCycles                           45868                       # Total number of cycles that the CPU has spent unscheduled due to idling
system.cpu.iew.branchMispredicts                  763                       # Number of branch mispredicts detected at execute
system.cpu.iew.exec_branches                  2953146                       # Number of branches executed
system.cpu.iew.exec_nop                             0                       # number of nop insts executed
system.cpu.iew.exec_rate                     0.054788                       # Inst execution rate
system.cpu.iew.exec_refs                     23645691                       # number of memory reference insts executed
system.cpu.iew.exec_stores                   23480291                       # Number of stores executed
system.cpu.iew.exec_swp                             0                       # number of swp insts executed
system.cpu.iew.iewBlockCycles                  262983                       # Number of cycles IEW is blocking
system.cpu.iew.iewDispLoadInsts                165751                       # Number of dispatched load instructions
system.cpu.iew.iewDispNonSpecInsts                 14                       # Number of dispatched non-speculative instructions
system.cpu.iew.iewDispSquashedInsts                74                       # Number of squashed instructions skipped by dispatch
system.cpu.iew.iewDispStoreInsts             23480779                       # Number of dispatched store instructions
system.cpu.iew.iewDispatchedInsts            41907278                       # Number of instructions dispatched to IQ
system.cpu.iew.iewExecLoadInsts                165400                       # Number of load instructions executed
system.cpu.iew.iewExecSquashedInsts               855                       # Number of squashed instructions skipped in execute
system.cpu.iew.iewExecutedInsts              41901721                       # Number of executed instructions
system.cpu.iew.iewIQFullEvents                     13                       # Number of times the IQ has become full, causing a stall
system.cpu.iew.iewIdleCycles                        0                       # Number of cycles IEW is idle
system.cpu.iew.iewLSQFullEvents             352450386                       # Number of times the LSQ has become full, causing a stall
system.cpu.iew.iewSquashCycles                  43580                       # Number of cycles IEW is squashing
system.cpu.iew.iewUnblockCycles             352407579                       # Number of cycles IEW is unblocking
system.cpu.iew.memOrderViolationEvents             15                       # Number of memory order violations
system.cpu.iew.predictedNotTakenIncorrect          472                       # Number of branches that were predicted not taken incorrectly
system.cpu.iew.predictedTakenIncorrect            291                       # Number of branches that were predicted taken incorrectly
system.cpu.iew.wb_consumers                  22129445                       # num instructions consuming a value
system.cpu.iew.wb_count                      40572663                       # cumulative count of insts written-back
system.cpu.iew.wb_fanout                     0.674724                       # average fanout of values written-back
system.cpu.iew.wb_producers                  14931278                       # num instructions producing a value
system.cpu.iew.wb_rate                       0.053050                       # insts written-back per cycle
system.cpu.iew.wb_sent                       41901162                       # cumulative count of insts sent to commit
system.cpu.int_regfile_reads                 66429817                       # number of integer regfile reads
system.cpu.int_regfile_writes                15467808                       # number of integer regfile writes
system.cpu.ipc                               0.026150                       # IPC: Instructions Per Cycle
system.cpu.ipc_total                         0.026150                       # IPC: Total IPC of All Threads
system.cpu.iq.FU_type_0::No_OpClass               709      0.00%      0.00% # Type of FU issued
system.cpu.iq.FU_type_0::IntAlu              18254973     43.57%     43.57% # Type of FU issued
system.cpu.iq.FU_type_0::IntMult                  632      0.00%     43.57% # Type of FU issued
system.cpu.iq.FU_type_0::IntDiv                    28      0.00%     43.57% # Type of FU issued
system.cpu.iq.FU_type_0::FloatAdd                  12      0.00%     43.57% # Type of FU issued
system.cpu.iq.FU_type_0::FloatCmp                   0      0.00%     43.57% # Type of FU issued
system.cpu.iq.FU_type_0::FloatCvt                   0      0.00%     43.57% # Type of FU issued
system.cpu.iq.FU_type_0::FloatMult                  0      0.00%     43.57% # Type of FU issued
system.cpu.iq.FU_type_0::FloatMultAcc               0      0.00%     43.57% # Type of FU issued
system.cpu.iq.FU_type_0::FloatDiv                   0      0.00%     43.57% # Type of FU issued
system.cpu.iq.FU_type_0::FloatMisc                  0      0.00%     43.57% # Type of FU issued
system.cpu.iq.FU_type_0::FloatSqrt                  0      0.00%     43.57% # Type of FU issued
system.cpu.iq.FU_type_0::SimdAdd                    0      0.00%     43.57% # Type of FU issued
system.cpu.iq.FU_type_0::SimdAddAcc                 0      0.00%     43.57% # Type of FU issued
system.cpu.iq.FU_type_0::SimdAlu                   84      0.00%     43.57% # Type of FU issued
system.cpu.iq.FU_type_0::SimdCmp                    0      0.00%     43.57% # Type of FU issued
system.cpu.iq.FU_type_0::SimdCvt                   64      0.00%     43.57% # Type of FU issued
system.cpu.iq.FU_type_0::SimdMisc                 128      0.00%     43.57% # Type of FU issued
system.cpu.iq.FU_type_0::SimdMult                   0      0.00%     43.57% # Type of FU issued
system.cpu.iq.FU_type_0::SimdMultAcc                0      0.00%     43.57% # Type of FU issued
system.cpu.iq.FU_type_0::SimdShift                  0      0.00%     43.57% # Type of FU issued
system.cpu.iq.FU_type_0::SimdShiftAcc               0      0.00%     43.57% # Type of FU issued
system.cpu.iq.FU_type_0::SimdDiv                    0      0.00%     43.57% # Type of FU issued
system.cpu.iq.FU_type_0::SimdSqrt                   0      0.00%     43.57% # Type of FU issued
system.cpu.iq.FU_type_0::SimdFloatAdd               0      0.00%     43.57% # Type of FU issued
system.cpu.iq.FU_type_0::SimdFloatAlu               0      0.00%     43.57% # Type of FU issued
system.cpu.iq.FU_type_0::SimdFloatCmp               0      0.00%     43.57% # Type of FU issued
system.cpu.iq.FU_type_0::SimdFloatCvt               0      0.00%     43.57% # Type of FU issued
system.cpu.iq.FU_type_0::SimdFloatDiv               0      0.00%     43.57% # Type of FU issued
system.cpu.iq.FU_type_0::SimdFloatMisc              0      0.00%     43.57% # Type of FU issued
system.cpu.iq.FU_type_0::SimdFloatMult              0      0.00%     43.57% # Type of FU issued
system.cpu.iq.FU_type_0::SimdFloatMultAcc            0      0.00%     43.57% # Type of FU issued
system.cpu.iq.FU_type_0::SimdFloatSqrt              0      0.00%     43.57% # Type of FU issued
system.cpu.iq.FU_type_0::SimdReduceAdd              0      0.00%     43.57% # Type of FU issued
system.cpu.iq.FU_type_0::SimdReduceAlu              0      0.00%     43.57% # Type of FU issued
system.cpu.iq.FU_type_0::SimdReduceCmp              0      0.00%     43.57% # Type of FU issued
system.cpu.iq.FU_type_0::SimdFloatReduceAdd            0      0.00%     43.57% # Type of FU issued
system.cpu.iq.FU_type_0::SimdFloatReduceCmp            0      0.00%     43.57% # Type of FU issued
system.cpu.iq.FU_type_0::SimdAes                    0      0.00%     43.57% # Type of FU issued
system.cpu.iq.FU_type_0::SimdAesMix                 0      0.00%     43.57% # Type of FU issued
system.cpu.iq.FU_type_0::SimdSha1Hash               0      0.00%     43.57% # Type of FU issued
system.cpu.iq.FU_type_0::SimdSha1Hash2              0      0.00%     43.57% # Type of FU issued
system.cpu.iq.FU_type_0::SimdSha256Hash             0      0.00%     43.57% # Type of FU issued
system.cpu.iq.FU_type_0::SimdSha256Hash2            0      0.00%     43.57% # Type of FU issued
system.cpu.iq.FU_type_0::SimdShaSigma2              0      0.00%     43.57% # Type of FU issued
system.cpu.iq.FU_type_0::SimdShaSigma3              0      0.00%     43.57% # Type of FU issued
system.cpu.iq.FU_type_0::SimdPredAlu                0      0.00%     43.57% # Type of FU issued
system.cpu.iq.FU_type_0::MemRead               165457      0.39%     43.96% # Type of FU issued
system.cpu.iq.FU_type_0::MemWrite              125550      0.30%     44.26% # Type of FU issued
system.cpu.iq.FU_type_0::FloatMemRead              56      0.00%     44.26% # Type of FU issued
system.cpu.iq.FU_type_0::FloatMemWrite       23354884     55.74%    100.00% # Type of FU issued
system.cpu.iq.FU_type_0::IprAccess                  0      0.00%    100.00% # Type of FU issued
system.cpu.iq.FU_type_0::InstPrefetch               0      0.00%    100.00% # Type of FU issued
system.cpu.iq.FU_type_0::total               41902577                       # Type of FU issued
system.cpu.iq.fp_alu_accesses                23440994                       # Number of floating point alu accesses
system.cpu.iq.fp_inst_queue_reads            46796253                       # Number of floating instruction queue reads
system.cpu.iq.fp_inst_queue_wakeup_accesses     22026918                       # Number of floating instruction queue wakeup accesses
system.cpu.iq.fp_inst_queue_writes           24769536                       # Number of floating instruction queue writes
system.cpu.iq.fu_busy_cnt                      107689                       # FU busy when requested
system.cpu.iq.fu_busy_rate                   0.002570                       # FU busy rate (busy events/executed inst)
system.cpu.iq.fu_full::No_OpClass                   0      0.00%      0.00% # attempts to use FU when none available
system.cpu.iq.fu_full::IntAlu                    1687      1.57%      1.57% # attempts to use FU when none available
system.cpu.iq.fu_full::IntMult                      0      0.00%      1.57% # attempts to use FU when none available
system.cpu.iq.fu_full::IntDiv                       0      0.00%      1.57% # attempts to use FU when none available
system.cpu.iq.fu_full::FloatAdd                     0      0.00%      1.57% # attempts to use FU when none available
system.cpu.iq.fu_full::FloatCmp                     0      0.00%      1.57% # attempts to use FU when none available
system.cpu.iq.fu_full::FloatCvt                     0      0.00%      1.57% # attempts to use FU when none available
system.cpu.iq.fu_full::FloatMult                    0      0.00%      1.57% # attempts to use FU when none available
system.cpu.iq.fu_full::FloatMultAcc                 0      0.00%      1.57% # attempts to use FU when none available
system.cpu.iq.fu_full::FloatDiv                     0      0.00%      1.57% # attempts to use FU when none available
system.cpu.iq.fu_full::FloatMisc                    0      0.00%      1.57% # attempts to use FU when none available
system.cpu.iq.fu_full::FloatSqrt                    0      0.00%      1.57% # attempts to use FU when none available
system.cpu.iq.fu_full::SimdAdd                      0      0.00%      1.57% # attempts to use FU when none available
system.cpu.iq.fu_full::SimdAddAcc                   0      0.00%      1.57% # attempts to use FU when none available
system.cpu.iq.fu_full::SimdAlu                     10      0.01%      1.58% # attempts to use FU when none available
system.cpu.iq.fu_full::SimdCmp                      0      0.00%      1.58% # attempts to use FU when none available
system.cpu.iq.fu_full::SimdCvt                      0      0.00%      1.58% # attempts to use FU when none available
system.cpu.iq.fu_full::SimdMisc                     1      0.00%      1.58% # attempts to use FU when none available
system.cpu.iq.fu_full::SimdMult                     0      0.00%      1.58% # attempts to use FU when none available
system.cpu.iq.fu_full::SimdMultAcc                  0      0.00%      1.58% # attempts to use FU when none available
system.cpu.iq.fu_full::SimdShift                    0      0.00%      1.58% # attempts to use FU when none available
system.cpu.iq.fu_full::SimdShiftAcc                 0      0.00%      1.58% # attempts to use FU when none available
system.cpu.iq.fu_full::SimdDiv                      0      0.00%      1.58% # attempts to use FU when none available
system.cpu.iq.fu_full::SimdSqrt                     0      0.00%      1.58% # attempts to use FU when none available
system.cpu.iq.fu_full::SimdFloatAdd                 0      0.00%      1.58% # attempts to use FU when none available
system.cpu.iq.fu_full::SimdFloatAlu                 0      0.00%      1.58% # attempts to use FU when none available
system.cpu.iq.fu_full::SimdFloatCmp                 0      0.00%      1.58% # attempts to use FU when none available
system.cpu.iq.fu_full::SimdFloatCvt                 0      0.00%      1.58% # attempts to use FU when none available
system.cpu.iq.fu_full::SimdFloatDiv                 0      0.00%      1.58% # attempts to use FU when none available
system.cpu.iq.fu_full::SimdFloatMisc                0      0.00%      1.58% # attempts to use FU when none available
system.cpu.iq.fu_full::SimdFloatMult                0      0.00%      1.58% # attempts to use FU when none available
system.cpu.iq.fu_full::SimdFloatMultAcc             0      0.00%      1.58% # attempts to use FU when none available
system.cpu.iq.fu_full::SimdFloatSqrt                0      0.00%      1.58% # attempts to use FU when none available
system.cpu.iq.fu_full::SimdReduceAdd                0      0.00%      1.58% # attempts to use FU when none available
system.cpu.iq.fu_full::SimdReduceAlu                0      0.00%      1.58% # attempts to use FU when none available
system.cpu.iq.fu_full::SimdReduceCmp                0      0.00%      1.58% # attempts to use FU when none available
system.cpu.iq.fu_full::SimdFloatReduceAdd            0      0.00%      1.58% # attempts to use FU when none available
system.cpu.iq.fu_full::SimdFloatReduceCmp            0      0.00%      1.58% # attempts to use FU when none available
system.cpu.iq.fu_full::SimdAes                      0      0.00%      1.58% # attempts to use FU when none available
system.cpu.iq.fu_full::SimdAesMix                   0      0.00%      1.58% # attempts to use FU when none available
system.cpu.iq.fu_full::SimdSha1Hash                 0      0.00%      1.58% # attempts to use FU when none available
system.cpu.iq.fu_full::SimdSha1Hash2                0      0.00%      1.58% # attempts to use FU when none available
system.cpu.iq.fu_full::SimdSha256Hash               0      0.00%      1.58% # attempts to use FU when none available
system.cpu.iq.fu_full::SimdSha256Hash2              0      0.00%      1.58% # attempts to use FU when none available
system.cpu.iq.fu_full::SimdShaSigma2                0      0.00%      1.58% # attempts to use FU when none available
system.cpu.iq.fu_full::SimdShaSigma3                0      0.00%      1.58% # attempts to use FU when none available
system.cpu.iq.fu_full::SimdPredAlu                  0      0.00%      1.58% # attempts to use FU when none available
system.cpu.iq.fu_full::MemRead                  20236     18.79%     20.37% # attempts to use FU when none available
system.cpu.iq.fu_full::MemWrite                    26      0.02%     20.39% # attempts to use FU when none available
system.cpu.iq.fu_full::FloatMemRead                 2      0.00%     20.39% # attempts to use FU when none available
system.cpu.iq.fu_full::FloatMemWrite            85727     79.61%    100.00% # attempts to use FU when none available
system.cpu.iq.fu_full::IprAccess                    0      0.00%    100.00% # attempts to use FU when none available
system.cpu.iq.fu_full::InstPrefetch                 0      0.00%    100.00% # attempts to use FU when none available
system.cpu.iq.int_alu_accesses               18568563                       # Number of integer alu accesses
system.cpu.iq.int_inst_queue_reads          801875083                       # Number of integer instruction queue reads
system.cpu.iq.int_inst_queue_wakeup_accesses     18545745                       # Number of integer instruction queue wakeup accesses
system.cpu.iq.int_inst_queue_writes          19594446                       # Number of integer instruction queue writes
system.cpu.iq.iqInstsAdded                   41907242                       # Number of instructions added to the IQ (excludes non-spec)
system.cpu.iq.iqInstsIssued                  41902577                       # Number of instructions issued
system.cpu.iq.iqNonSpecInstsAdded                  36                       # Number of non-speculative instructions added to the IQ
system.cpu.iq.iqSquashedInstsExamined         2456689                       # Number of squashed instructions iterated over during squash; mainly for profiling
system.cpu.iq.iqSquashedInstsIssued                45                       # Number of squashed instructions issued
system.cpu.iq.iqSquashedNonSpecRemoved             35                       # Number of squashed non-spec instructions that were removed
system.cpu.iq.iqSquashedOperandsExamined      5332278                       # Number of squashed operands that are examined and possibly removed from graph
system.cpu.iq.issued_per_cycle::samples     764758449                       # Number of insts issued each cycle
system.cpu.iq.issued_per_cycle::mean         0.054792                       # Number of insts issued each cycle
system.cpu.iq.issued_per_cycle::stdev        0.339751                       # Number of insts issued each cycle
system.cpu.iq.issued_per_cycle::underflows            0      0.00%      0.00% # Number of insts issued each cycle
system.cpu.iq.issued_per_cycle::0           735784371     96.21%     96.21% # Number of insts issued each cycle
system.cpu.iq.issued_per_cycle::1            22811027      2.98%     99.19% # Number of insts issued each cycle
system.cpu.iq.issued_per_cycle::2             2498060      0.33%     99.52% # Number of insts issued each cycle
system.cpu.iq.issued_per_cycle::3             1389976      0.18%     99.70% # Number of insts issued each cycle
system.cpu.iq.issued_per_cycle::4             1928825      0.25%     99.95% # Number of insts issued each cycle
system.cpu.iq.issued_per_cycle::5               59065      0.01%     99.96% # Number of insts issued each cycle
system.cpu.iq.issued_per_cycle::6              138846      0.02%     99.98% # Number of insts issued each cycle
system.cpu.iq.issued_per_cycle::7              104431      0.01%     99.99% # Number of insts issued each cycle
system.cpu.iq.issued_per_cycle::8               43848      0.01%    100.00% # Number of insts issued each cycle
system.cpu.iq.issued_per_cycle::overflows            0      0.00%    100.00% # Number of insts issued each cycle
system.cpu.iq.issued_per_cycle::min_value            0                       # Number of insts issued each cycle
system.cpu.iq.issued_per_cycle::max_value            8                       # Number of insts issued each cycle
system.cpu.iq.issued_per_cycle::total       764758449                       # Number of insts issued each cycle
system.cpu.iq.rate                           0.054789                       # Inst issue rate
system.cpu.iq.vec_alu_accesses                      0                       # Number of vector alu accesses
system.cpu.iq.vec_inst_queue_reads                  0                       # Number of vector instruction queue reads
system.cpu.iq.vec_inst_queue_wakeup_accesses            0                       # Number of vector instruction queue wakeup accesses
system.cpu.iq.vec_inst_queue_writes                 0                       # Number of vector instruction queue writes
system.cpu.loadValPred.constant_verification_unit.constLoadHits          910                       # Number of loads marked constant that hit in the CVU CAM
system.cpu.loadValPred.constant_verification_unit.constLoadMisses        60618                       # Number of loads marked constant that missed in the CVU CAM
system.cpu.loadValPred.constant_verification_unit.numCAMReplacements        29327                       # Number of CVU CAM entries replaced
system.cpu.loadValPred.constant_verification_unit.numLoadAccesses        61528                       # Number of loads marked constant which accessed the CVU
system.cpu.loadValPred.constant_verification_unit.numStoreAccesses     22151937                       # Number of store instructions which accessed the CVU
system.cpu.loadValPred.constant_verification_unit.numStoreHits          703                       # Number of stores that hit in the CVU CAM
system.cpu.loadValPred.constant_verification_unit.numStoreMisses     22151234                       # Number of stores that missed in the CVU CAM
system.cpu.loadValPred.numConstLoads            30774                       # Number of loads classified as constant
system.cpu.loadValPred.numConstLoadsCorrect          910                       # Number of constant loads correctly predicted
system.cpu.loadValPred.numConstLoadsMispredicted        60618                       # Number of constant loads incorrectly predicted
system.cpu.loadValPred.numConstValOne            2509                       # Number of constant loads with value 1
system.cpu.loadValPred.numConstValZero           9429                       # Number of constant loads with value 0
system.cpu.loadValPred.numPredictableLoads        26808                       # Number of loads classified as predictable
system.cpu.loadValPred.numPredictableLoadsCorrect        19397                       # Number of loads correctly classified as predictable
system.cpu.loadValPred.numPredictableLoadsIncorrect         7214                       # Number of loads incorrectly classified as predictable
system.cpu.loadValPred.totalLoads              165751                       # Total loads processed by the Load value predictor
system.cpu.memDep0.conflictingLoads              6017                       # Number of conflicting loads.
system.cpu.memDep0.conflictingStores             4172                       # Number of conflicting stores.
system.cpu.memDep0.insertedLoads               165751                       # Number of loads inserted to the mem dependence unit.
system.cpu.memDep0.insertedStores            23480779                       # Number of stores inserted to the mem dependence unit.
system.cpu.misc_regfile_reads                29556461                       # number of misc regfile reads
system.cpu.misc_regfile_writes                      1                       # number of misc regfile writes
system.cpu.numCycles                        764804317                       # number of cpu cycles simulated
system.cpu.numWorkItemsCompleted                    0                       # number of work items this cpu completed
system.cpu.numWorkItemsStarted                      0                       # number of work items this cpu started
system.cpu.timesIdled                             254                       # Number of times that the entire CPU went into an idle state and unscheduled itself
system.cpu.workload.numSyscalls                    11                       # Number of system calls
system.membus.snoop_filter.hit_multi_requests            0                       # Number of requests hitting in the snoop filter with multiple (>1) holders of the requested data.
system.membus.snoop_filter.hit_multi_snoops            0                       # Number of snoops hitting in the snoop filter with multiple (>1) holders of the requested data.
system.membus.snoop_filter.hit_single_requests      2741484                       # Number of requests hitting in the snoop filter with a single holder of the requested data.
system.membus.snoop_filter.hit_single_snoops            0                       # Number of snoops hitting in the snoop filter with a single holder of the requested data.
system.membus.snoop_filter.tot_requests       5487452                       # Total number of requests made to the snoop filter.
system.membus.snoop_filter.tot_snoops               0                       # Total number of snoops made to the snoop filter.
system.tol2bus.snoop_filter.hit_multi_requests            4                       # Number of requests hitting in the snoop filter with multiple (>1) holders of the requested data.
system.tol2bus.snoop_filter.hit_multi_snoops            0                       # Number of snoops hitting in the snoop filter with multiple (>1) holders of the requested data.
system.tol2bus.snoop_filter.hit_single_requests      2745104                       # Number of requests hitting in the snoop filter with a single holder of the requested data.
system.tol2bus.snoop_filter.hit_single_snoops          392                       # Number of snoops hitting in the snoop filter with a single holder of the requested data.
system.tol2bus.snoop_filter.tot_requests      5491109                       # Total number of requests made to the snoop filter.
system.tol2bus.snoop_filter.tot_snoops            392                       # Total number of snoops made to the snoop filter.
system.membus.trans_dist::ReadResp                539                       # Transaction distribution
system.membus.trans_dist::WritebackDirty      2741360                       # Transaction distribution
system.membus.trans_dist::CleanEvict              124                       # Transaction distribution
system.membus.trans_dist::ReadExReq           2745429                       # Transaction distribution
system.membus.trans_dist::ReadExResp          2745429                       # Transaction distribution
system.membus.trans_dist::ReadSharedReq           539                       # Transaction distribution
system.membus.pkt_count_system.l2.mem_side_port::system.mem_ctrls.port      8233420                       # Packet count per connected requestor and responder (bytes)
system.membus.pkt_count_system.l2.mem_side_port::total      8233420                       # Packet count per connected requestor and responder (bytes)
system.membus.pkt_count::total                8233420                       # Packet count per connected requestor and responder (bytes)
system.membus.pkt_size_system.l2.mem_side_port::system.mem_ctrls.port    351188992                       # Cumulative packet size per connected requestor and responder (bytes)
system.membus.pkt_size_system.l2.mem_side_port::total    351188992                       # Cumulative packet size per connected requestor and responder (bytes)
system.membus.pkt_size::total               351188992                       # Cumulative packet size per connected requestor and responder (bytes)
system.membus.snoops                                0                       # Total snoops (count)
system.membus.snoopTraffic                          0                       # Total snoop traffic (bytes)
system.membus.snoop_fanout::samples           2745968                       # Request fanout histogram
system.membus.snoop_fanout::mean                    0                       # Request fanout histogram
system.membus.snoop_fanout::stdev                   0                       # Request fanout histogram
system.membus.snoop_fanout::underflows              0      0.00%      0.00% # Request fanout histogram
system.membus.snoop_fanout::0                 2745968    100.00%    100.00% # Request fanout histogram
system.membus.snoop_fanout::1                       0      0.00%    100.00% # Request fanout histogram
system.membus.snoop_fanout::overflows               0      0.00%    100.00% # Request fanout histogram
system.membus.snoop_fanout::min_value               0                       # Request fanout histogram
system.membus.snoop_fanout::max_value               0                       # Request fanout histogram
system.membus.snoop_fanout::total             2745968                       # Request fanout histogram
system.membus.reqLayer2.occupancy         17809976716                       # Layer occupancy (ticks)
system.membus.reqLayer2.utilization               8.4                       # Layer utilization (%)
system.membus.respLayer1.occupancy        14464779172                       # Layer occupancy (ticks)
system.membus.respLayer1.utilization              6.8                       # Layer utilization (%)
system.membus.power_state.pwrStateResidencyTicks::UNDEFINED 212615599848                       # Cumulative time (in ticks) in various power states
system.tol2bus.trans_dist::ReadResp               565                       # Transaction distribution
system.tol2bus.trans_dist::WritebackDirty      5486331                       # Transaction distribution
system.tol2bus.trans_dist::WritebackClean           33                       # Transaction distribution
system.tol2bus.trans_dist::CleanEvict             616                       # Transaction distribution
system.tol2bus.trans_dist::ReadExReq          2745440                       # Transaction distribution
system.tol2bus.trans_dist::ReadExResp         2745439                       # Transaction distribution
system.tol2bus.trans_dist::ReadCleanReq           421                       # Transaction distribution
system.tol2bus.trans_dist::ReadSharedReq          144                       # Transaction distribution
system.tol2bus.pkt_count_system.cpu.icache.mem_side_port::system.l2.cpu_side_port          875                       # Packet count per connected requestor and responder (bytes)
system.tol2bus.pkt_count_system.cpu.dcache.mem_side_port::system.l2.cpu_side_port      8236238                       # Packet count per connected requestor and responder (bytes)
system.tol2bus.pkt_count::total               8237113                       # Packet count per connected requestor and responder (bytes)
system.tol2bus.pkt_size_system.cpu.icache.mem_side_port::system.l2.cpu_side_port        29056                       # Cumulative packet size per connected requestor and responder (bytes)
system.tol2bus.pkt_size_system.cpu.dcache.mem_side_port::system.l2.cpu_side_port    351395456                       # Cumulative packet size per connected requestor and responder (bytes)
system.tol2bus.pkt_size::total              351424512                       # Cumulative packet size per connected requestor and responder (bytes)
system.tol2bus.snoops                         2741876                       # Total snoops (count)
system.tol2bus.snoopTraffic                 175447040                       # Total snoop traffic (bytes)
system.tol2bus.snoop_fanout::samples          5487881                       # Request fanout histogram
system.tol2bus.snoop_fanout::mean            0.000072                       # Request fanout histogram
system.tol2bus.snoop_fanout::stdev           0.008494                       # Request fanout histogram
system.tol2bus.snoop_fanout::underflows             0      0.00%      0.00% # Request fanout histogram
system.tol2bus.snoop_fanout::0                5487485     99.99%     99.99% # Request fanout histogram
system.tol2bus.snoop_fanout::1                    396      0.01%    100.00% # Request fanout histogram
system.tol2bus.snoop_fanout::2                      0      0.00%    100.00% # Request fanout histogram
system.tol2bus.snoop_fanout::3                      0      0.00%    100.00% # Request fanout histogram
system.tol2bus.snoop_fanout::4                      0      0.00%    100.00% # Request fanout histogram
system.tol2bus.snoop_fanout::overflows              0      0.00%    100.00% # Request fanout histogram
system.tol2bus.snoop_fanout::min_value              0                       # Request fanout histogram
system.tol2bus.snoop_fanout::max_value              1                       # Request fanout histogram
system.tol2bus.snoop_fanout::total            5487881                       # Request fanout histogram
system.tol2bus.reqLayer0.occupancy         3052750526                       # Layer occupancy (ticks)
system.tol2bus.reqLayer0.utilization              1.4                       # Layer utilization (%)
system.tol2bus.respLayer1.occupancy        2289816222                       # Layer occupancy (ticks)
system.tol2bus.respLayer1.utilization             1.1                       # Layer utilization (%)
system.tol2bus.respLayer0.occupancy            351114                       # Layer occupancy (ticks)
system.tol2bus.respLayer0.utilization             0.0                       # Layer utilization (%)
system.tol2bus.power_state.pwrStateResidencyTicks::UNDEFINED 212615599848                       # Cumulative time (in ticks) in various power states
system.voltage_domain.voltage                       1                       # Voltage in Volts
system.clk_domain.clock                          1000                       # Clock period in ticks
system.l2.demand_hits::.cpu.inst                    5                       # number of demand (read+write) hits
system.l2.demand_hits::.cpu.data                   31                       # number of demand (read+write) hits
system.l2.demand_hits::total                       36                       # number of demand (read+write) hits
system.l2.overall_hits::.cpu.inst                   5                       # number of overall hits
system.l2.overall_hits::.cpu.data                  31                       # number of overall hits
system.l2.overall_hits::total                      36                       # number of overall hits
system.l2.demand_misses::.cpu.inst                416                       # number of demand (read+write) misses
system.l2.demand_misses::.cpu.data            2745553                       # number of demand (read+write) misses
system.l2.demand_misses::total                2745969                       # number of demand (read+write) misses
system.l2.overall_misses::.cpu.inst               416                       # number of overall misses
system.l2.overall_misses::.cpu.data           2745553                       # number of overall misses
system.l2.overall_misses::total               2745969                       # number of overall misses
system.l2.demand_miss_latency::.cpu.inst     28645676                       # number of demand (read+write) miss cycles
system.l2.demand_miss_latency::.cpu.data 197663388196                       # number of demand (read+write) miss cycles
system.l2.demand_miss_latency::total     197692033872                       # number of demand (read+write) miss cycles
system.l2.overall_miss_latency::.cpu.inst     28645676                       # number of overall miss cycles
system.l2.overall_miss_latency::.cpu.data 197663388196                       # number of overall miss cycles
system.l2.overall_miss_latency::total    197692033872                       # number of overall miss cycles
system.l2.demand_accesses::.cpu.inst              421                       # number of demand (read+write) accesses
system.l2.demand_accesses::.cpu.data          2745584                       # number of demand (read+write) accesses
system.l2.demand_accesses::total              2746005                       # number of demand (read+write) accesses
system.l2.overall_accesses::.cpu.inst             421                       # number of overall (read+write) accesses
system.l2.overall_accesses::.cpu.data         2745584                       # number of overall (read+write) accesses
system.l2.overall_accesses::total             2746005                       # number of overall (read+write) accesses
system.l2.demand_miss_rate::.cpu.inst        0.988124                       # miss rate for demand accesses
system.l2.demand_miss_rate::.cpu.data        0.999989                       # miss rate for demand accesses
system.l2.demand_miss_rate::total            0.999987                       # miss rate for demand accesses
system.l2.overall_miss_rate::.cpu.inst       0.988124                       # miss rate for overall accesses
system.l2.overall_miss_rate::.cpu.data       0.999989                       # miss rate for overall accesses
system.l2.overall_miss_rate::total           0.999987                       # miss rate for overall accesses
system.l2.demand_avg_miss_latency::.cpu.inst 68859.798077                       # average overall miss latency
system.l2.demand_avg_miss_latency::.cpu.data 71994.016577                       # average overall miss latency
system.l2.demand_avg_miss_latency::total 71993.541760                       # average overall miss latency
system.l2.overall_avg_miss_latency::.cpu.inst 68859.798077                       # average overall miss latency
system.l2.overall_avg_miss_latency::.cpu.data 71994.016577                       # average overall miss latency
system.l2.overall_avg_miss_latency::total 71993.541760                       # average overall miss latency
system.l2.blocked_cycles::no_mshrs                  0                       # number of cycles access was blocked
system.l2.blocked_cycles::no_targets                0                       # number of cycles access was blocked
system.l2.blocked::no_mshrs                         0                       # number of cycles access was blocked
system.l2.blocked::no_targets                       0                       # number of cycles access was blocked
system.l2.avg_blocked_cycles::no_mshrs            nan                       # average number of cycles each access was blocked
system.l2.avg_blocked_cycles::no_targets          nan                       # average number of cycles each access was blocked
system.l2.writebacks::.writebacks             2741360                       # number of writebacks
system.l2.writebacks::total                   2741360                       # number of writebacks
system.l2.demand_mshr_misses::.cpu.inst           416                       # number of demand (read+write) MSHR misses
system.l2.demand_mshr_misses::.cpu.data       2745553                       # number of demand (read+write) MSHR misses
system.l2.demand_mshr_misses::total           2745969                       # number of demand (read+write) MSHR misses
system.l2.overall_mshr_misses::.cpu.inst          416                       # number of overall MSHR misses
system.l2.overall_mshr_misses::.cpu.data      2745553                       # number of overall MSHR misses
system.l2.overall_mshr_misses::total          2745969                       # number of overall MSHR misses
system.l2.demand_mshr_miss_latency::.cpu.inst     26274758                       # number of demand (read+write) MSHR miss cycles
system.l2.demand_mshr_miss_latency::.cpu.data 182019235786                       # number of demand (read+write) MSHR miss cycles
system.l2.demand_mshr_miss_latency::total 182045510544                       # number of demand (read+write) MSHR miss cycles
system.l2.overall_mshr_miss_latency::.cpu.inst     26274758                       # number of overall MSHR miss cycles
system.l2.overall_mshr_miss_latency::.cpu.data 182019235786                       # number of overall MSHR miss cycles
system.l2.overall_mshr_miss_latency::total 182045510544                       # number of overall MSHR miss cycles
system.l2.demand_mshr_miss_rate::.cpu.inst     0.988124                       # mshr miss rate for demand accesses
system.l2.demand_mshr_miss_rate::.cpu.data     0.999989                       # mshr miss rate for demand accesses
system.l2.demand_mshr_miss_rate::total       0.999987                       # mshr miss rate for demand accesses
system.l2.overall_mshr_miss_rate::.cpu.inst     0.988124                       # mshr miss rate for overall accesses
system.l2.overall_mshr_miss_rate::.cpu.data     0.999989                       # mshr miss rate for overall accesses
system.l2.overall_mshr_miss_rate::total      0.999987                       # mshr miss rate for overall accesses
system.l2.demand_avg_mshr_miss_latency::.cpu.inst 63160.475962                       # average overall mshr miss latency
system.l2.demand_avg_mshr_miss_latency::.cpu.data 66296.019704                       # average overall mshr miss latency
system.l2.demand_avg_mshr_miss_latency::total 66295.544685                       # average overall mshr miss latency
system.l2.overall_avg_mshr_miss_latency::.cpu.inst 63160.475962                       # average overall mshr miss latency
system.l2.overall_avg_mshr_miss_latency::.cpu.data 66296.019704                       # average overall mshr miss latency
system.l2.overall_avg_mshr_miss_latency::total 66295.544685                       # average overall mshr miss latency
system.l2.replacements                        2741876                       # number of replacements
system.l2.WritebackDirty_hits::.writebacks      2744971                       # number of WritebackDirty hits
system.l2.WritebackDirty_hits::total          2744971                       # number of WritebackDirty hits
system.l2.WritebackDirty_accesses::.writebacks      2744971                       # number of WritebackDirty accesses(hits+misses)
system.l2.WritebackDirty_accesses::total      2744971                       # number of WritebackDirty accesses(hits+misses)
system.l2.WritebackClean_hits::.writebacks           33                       # number of WritebackClean hits
system.l2.WritebackClean_hits::total               33                       # number of WritebackClean hits
system.l2.WritebackClean_accesses::.writebacks           33                       # number of WritebackClean accesses(hits+misses)
system.l2.WritebackClean_accesses::total           33                       # number of WritebackClean accesses(hits+misses)
system.l2.ReadExReq_hits::.cpu.data                10                       # number of ReadExReq hits
system.l2.ReadExReq_hits::total                    10                       # number of ReadExReq hits
system.l2.ReadExReq_misses::.cpu.data         2745430                       # number of ReadExReq misses
system.l2.ReadExReq_misses::total             2745430                       # number of ReadExReq misses
system.l2.ReadExReq_miss_latency::.cpu.data 197653690166                       # number of ReadExReq miss cycles
system.l2.ReadExReq_miss_latency::total  197653690166                       # number of ReadExReq miss cycles
system.l2.ReadExReq_accesses::.cpu.data       2745440                       # number of ReadExReq accesses(hits+misses)
system.l2.ReadExReq_accesses::total           2745440                       # number of ReadExReq accesses(hits+misses)
system.l2.ReadExReq_miss_rate::.cpu.data     0.999996                       # miss rate for ReadExReq accesses
system.l2.ReadExReq_miss_rate::total         0.999996                       # miss rate for ReadExReq accesses
system.l2.ReadExReq_avg_miss_latency::.cpu.data 71993.709607                       # average ReadExReq miss latency
system.l2.ReadExReq_avg_miss_latency::total 71993.709607                       # average ReadExReq miss latency
system.l2.ReadExReq_mshr_misses::.cpu.data      2745430                       # number of ReadExReq MSHR misses
system.l2.ReadExReq_mshr_misses::total        2745430                       # number of ReadExReq MSHR misses
system.l2.ReadExReq_mshr_miss_latency::.cpu.data 182010236270                       # number of ReadExReq MSHR miss cycles
system.l2.ReadExReq_mshr_miss_latency::total 182010236270                       # number of ReadExReq MSHR miss cycles
system.l2.ReadExReq_mshr_miss_rate::.cpu.data     0.999996                       # mshr miss rate for ReadExReq accesses
system.l2.ReadExReq_mshr_miss_rate::total     0.999996                       # mshr miss rate for ReadExReq accesses
system.l2.ReadExReq_avg_mshr_miss_latency::.cpu.data 66295.711881                       # average ReadExReq mshr miss latency
system.l2.ReadExReq_avg_mshr_miss_latency::total 66295.711881                       # average ReadExReq mshr miss latency
system.l2.ReadCleanReq_hits::.cpu.inst              5                       # number of ReadCleanReq hits
system.l2.ReadCleanReq_hits::total                  5                       # number of ReadCleanReq hits
system.l2.ReadCleanReq_misses::.cpu.inst          416                       # number of ReadCleanReq misses
system.l2.ReadCleanReq_misses::total              416                       # number of ReadCleanReq misses
system.l2.ReadCleanReq_miss_latency::.cpu.inst     28645676                       # number of ReadCleanReq miss cycles
system.l2.ReadCleanReq_miss_latency::total     28645676                       # number of ReadCleanReq miss cycles
system.l2.ReadCleanReq_accesses::.cpu.inst          421                       # number of ReadCleanReq accesses(hits+misses)
system.l2.ReadCleanReq_accesses::total            421                       # number of ReadCleanReq accesses(hits+misses)
system.l2.ReadCleanReq_miss_rate::.cpu.inst     0.988124                       # miss rate for ReadCleanReq accesses
system.l2.ReadCleanReq_miss_rate::total      0.988124                       # miss rate for ReadCleanReq accesses
system.l2.ReadCleanReq_avg_miss_latency::.cpu.inst 68859.798077                       # average ReadCleanReq miss latency
system.l2.ReadCleanReq_avg_miss_latency::total 68859.798077                       # average ReadCleanReq miss latency
system.l2.ReadCleanReq_mshr_misses::.cpu.inst          416                       # number of ReadCleanReq MSHR misses
system.l2.ReadCleanReq_mshr_misses::total          416                       # number of ReadCleanReq MSHR misses
system.l2.ReadCleanReq_mshr_miss_latency::.cpu.inst     26274758                       # number of ReadCleanReq MSHR miss cycles
system.l2.ReadCleanReq_mshr_miss_latency::total     26274758                       # number of ReadCleanReq MSHR miss cycles
system.l2.ReadCleanReq_mshr_miss_rate::.cpu.inst     0.988124                       # mshr miss rate for ReadCleanReq accesses
system.l2.ReadCleanReq_mshr_miss_rate::total     0.988124                       # mshr miss rate for ReadCleanReq accesses
system.l2.ReadCleanReq_avg_mshr_miss_latency::.cpu.inst 63160.475962                       # average ReadCleanReq mshr miss latency
system.l2.ReadCleanReq_avg_mshr_miss_latency::total 63160.475962                       # average ReadCleanReq mshr miss latency
system.l2.ReadSharedReq_hits::.cpu.data            21                       # number of ReadSharedReq hits
system.l2.ReadSharedReq_hits::total                21                       # number of ReadSharedReq hits
system.l2.ReadSharedReq_misses::.cpu.data          123                       # number of ReadSharedReq misses
system.l2.ReadSharedReq_misses::total             123                       # number of ReadSharedReq misses
system.l2.ReadSharedReq_miss_latency::.cpu.data      9698030                       # number of ReadSharedReq miss cycles
system.l2.ReadSharedReq_miss_latency::total      9698030                       # number of ReadSharedReq miss cycles
system.l2.ReadSharedReq_accesses::.cpu.data          144                       # number of ReadSharedReq accesses(hits+misses)
system.l2.ReadSharedReq_accesses::total           144                       # number of ReadSharedReq accesses(hits+misses)
system.l2.ReadSharedReq_miss_rate::.cpu.data     0.854167                       # miss rate for ReadSharedReq accesses
system.l2.ReadSharedReq_miss_rate::total     0.854167                       # miss rate for ReadSharedReq accesses
system.l2.ReadSharedReq_avg_miss_latency::.cpu.data 78845.772358                       # average ReadSharedReq miss latency
system.l2.ReadSharedReq_avg_miss_latency::total 78845.772358                       # average ReadSharedReq miss latency
system.l2.ReadSharedReq_mshr_misses::.cpu.data          123                       # number of ReadSharedReq MSHR misses
system.l2.ReadSharedReq_mshr_misses::total          123                       # number of ReadSharedReq MSHR misses
system.l2.ReadSharedReq_mshr_miss_latency::.cpu.data      8999516                       # number of ReadSharedReq MSHR miss cycles
system.l2.ReadSharedReq_mshr_miss_latency::total      8999516                       # number of ReadSharedReq MSHR miss cycles
system.l2.ReadSharedReq_mshr_miss_rate::.cpu.data     0.854167                       # mshr miss rate for ReadSharedReq accesses
system.l2.ReadSharedReq_mshr_miss_rate::total     0.854167                       # mshr miss rate for ReadSharedReq accesses
system.l2.ReadSharedReq_avg_mshr_miss_latency::.cpu.data 73166.796748                       # average ReadSharedReq mshr miss latency
system.l2.ReadSharedReq_avg_mshr_miss_latency::total 73166.796748                       # average ReadSharedReq mshr miss latency
system.l2.power_state.pwrStateResidencyTicks::UNDEFINED 212615599848                       # Cumulative time (in ticks) in various power states
system.l2.tags.tagsinuse                  4092.794662                       # Cycle average of tags in use
system.l2.tags.total_refs                     5491104                       # Total number of references to valid blocks.
system.l2.tags.sampled_refs                   2745972                       # Sample count of references to valid blocks.
system.l2.tags.avg_refs                      1.999694                       # Average number of references to valid blocks.
system.l2.tags.warmup_cycle                     77000                       # Cycle when the warmup percentage was hit.
system.l2.tags.occ_blocks::.writebacks       0.004643                       # Average occupied blocks per requestor
system.l2.tags.occ_blocks::.cpu.inst         0.673015                       # Average occupied blocks per requestor
system.l2.tags.occ_blocks::.cpu.data      4092.117004                       # Average occupied blocks per requestor
system.l2.tags.occ_percent::.writebacks      0.000001                       # Average percentage of cache occupancy
system.l2.tags.occ_percent::.cpu.inst        0.000164                       # Average percentage of cache occupancy
system.l2.tags.occ_percent::.cpu.data        0.999052                       # Average percentage of cache occupancy
system.l2.tags.occ_percent::total            0.999217                       # Average percentage of cache occupancy
system.l2.tags.occ_task_id_blocks::1024          4096                       # Occupied blocks per task id
system.l2.tags.age_task_id_blocks_1024::0          131                       # Occupied blocks per task id
system.l2.tags.age_task_id_blocks_1024::1         1160                       # Occupied blocks per task id
system.l2.tags.age_task_id_blocks_1024::2         2805                       # Occupied blocks per task id
system.l2.tags.occ_task_id_percent::1024            1                       # Percentage of cache occupancy per task id
system.l2.tags.tag_accesses                  46674812                       # Number of tag accesses
system.l2.tags.data_accesses                 46674812                       # Number of data accesses
system.l2.tags.power_state.pwrStateResidencyTicks::UNDEFINED 212615599848                       # Cumulative time (in ticks) in various power states
system.cpu_voltage_domain.voltage                   1                       # Voltage in Volts
system.mem_ctrls.avgPriority_.writebacks::samples   2741360.00                       # Average QoS priority value for accepted requests
system.mem_ctrls.avgPriority_.cpu.inst::samples       416.00                       # Average QoS priority value for accepted requests
system.mem_ctrls.avgPriority_.cpu.data::samples   2745552.00                       # Average QoS priority value for accepted requests
system.mem_ctrls.priorityMinLatency      0.000000018750                       # per QoS priority minimum request to response latency (s)
system.mem_ctrls.priorityMaxLatency      0.000102738488                       # per QoS priority maximum request to response latency (s)
system.mem_ctrls.numReadWriteTurnArounds       171333                       # Number of turnarounds from READ to WRITE
system.mem_ctrls.numWriteReadTurnArounds       171333                       # Number of turnarounds from WRITE to READ
system.mem_ctrls.numStayReadState             8113141                       # Number of times bus staying in READ state
system.mem_ctrls.numStayWriteState            2570047                       # Number of times bus staying in WRITE state
system.mem_ctrls.readReqs                     2745968                       # Number of read requests accepted
system.mem_ctrls.writeReqs                    2741360                       # Number of write requests accepted
system.mem_ctrls.readBursts                   2745968                       # Number of controller read bursts, including those serviced by the write queue
system.mem_ctrls.writeBursts                  2741360                       # Number of controller write bursts, including those merged in the write queue
system.mem_ctrls.servicedByWrQ                      0                       # Number of controller read bursts serviced by the write queue
system.mem_ctrls.mergedWrBursts                     0                       # Number of controller write bursts merged with an existing one
system.mem_ctrls.neitherReadNorWriteReqs            0                       # Number of requests that are neither read nor write
system.mem_ctrls.avgRdQLen                       1.00                       # Average read queue length when enqueuing
system.mem_ctrls.avgWrQLen                      26.26                       # Average write queue length when enqueuing
system.mem_ctrls.numRdRetry                         0                       # Number of times read queue was full causing retry
system.mem_ctrls.numWrRetry                         0                       # Number of times write queue was full causing retry
system.mem_ctrls.readPktSize::0                     0                       # Read request sizes (log2)
system.mem_ctrls.readPktSize::1                     0                       # Read request sizes (log2)
system.mem_ctrls.readPktSize::2                     0                       # Read request sizes (log2)
system.mem_ctrls.readPktSize::3                     0                       # Read request sizes (log2)
system.mem_ctrls.readPktSize::4                     0                       # Read request sizes (log2)
system.mem_ctrls.readPktSize::5                     0                       # Read request sizes (log2)
system.mem_ctrls.readPktSize::6               2745968                       # Read request sizes (log2)
system.mem_ctrls.writePktSize::0                    0                       # Write request sizes (log2)
system.mem_ctrls.writePktSize::1                    0                       # Write request sizes (log2)
system.mem_ctrls.writePktSize::2                    0                       # Write request sizes (log2)
system.mem_ctrls.writePktSize::3                    0                       # Write request sizes (log2)
system.mem_ctrls.writePktSize::4                    0                       # Write request sizes (log2)
system.mem_ctrls.writePktSize::5                    0                       # Write request sizes (log2)
system.mem_ctrls.writePktSize::6              2741360                       # Write request sizes (log2)
system.mem_ctrls.rdQLenPdf::0                 2745653                       # What read queue length does an incoming req see
system.mem_ctrls.rdQLenPdf::1                     218                       # What read queue length does an incoming req see
system.mem_ctrls.rdQLenPdf::2                      71                       # What read queue length does an incoming req see
system.mem_ctrls.rdQLenPdf::3                      21                       # What read queue length does an incoming req see
system.mem_ctrls.rdQLenPdf::4                       5                       # What read queue length does an incoming req see
system.mem_ctrls.rdQLenPdf::5                       0                       # What read queue length does an incoming req see
system.mem_ctrls.rdQLenPdf::6                       0                       # What read queue length does an incoming req see
system.mem_ctrls.rdQLenPdf::7                       0                       # What read queue length does an incoming req see
system.mem_ctrls.rdQLenPdf::8                       0                       # What read queue length does an incoming req see
system.mem_ctrls.rdQLenPdf::9                       0                       # What read queue length does an incoming req see
system.mem_ctrls.rdQLenPdf::10                      0                       # What read queue length does an incoming req see
system.mem_ctrls.rdQLenPdf::11                      0                       # What read queue length does an incoming req see
system.mem_ctrls.rdQLenPdf::12                      0                       # What read queue length does an incoming req see
system.mem_ctrls.rdQLenPdf::13                      0                       # What read queue length does an incoming req see
system.mem_ctrls.rdQLenPdf::14                      0                       # What read queue length does an incoming req see
system.mem_ctrls.rdQLenPdf::15                      0                       # What read queue length does an incoming req see
system.mem_ctrls.rdQLenPdf::16                      0                       # What read queue length does an incoming req see
system.mem_ctrls.rdQLenPdf::17                      0                       # What read queue length does an incoming req see
system.mem_ctrls.rdQLenPdf::18                      0                       # What read queue length does an incoming req see
system.mem_ctrls.rdQLenPdf::19                      0                       # What read queue length does an incoming req see
system.mem_ctrls.rdQLenPdf::20                      0                       # What read queue length does an incoming req see
system.mem_ctrls.rdQLenPdf::21                      0                       # What read queue length does an incoming req see
system.mem_ctrls.rdQLenPdf::22                      0                       # What read queue length does an incoming req see
system.mem_ctrls.rdQLenPdf::23                      0                       # What read queue length does an incoming req see
system.mem_ctrls.rdQLenPdf::24                      0                       # What read queue length does an incoming req see
system.mem_ctrls.rdQLenPdf::25                      0                       # What read queue length does an incoming req see
system.mem_ctrls.rdQLenPdf::26                      0                       # What read queue length does an incoming req see
system.mem_ctrls.rdQLenPdf::27                      0                       # What read queue length does an incoming req see
system.mem_ctrls.rdQLenPdf::28                      0                       # What read queue length does an incoming req see
system.mem_ctrls.rdQLenPdf::29                      0                       # What read queue length does an incoming req see
system.mem_ctrls.rdQLenPdf::30                      0                       # What read queue length does an incoming req see
system.mem_ctrls.rdQLenPdf::31                      0                       # What read queue length does an incoming req see
system.mem_ctrls.wrQLenPdf::0                       1                       # What write queue length does an incoming req see
system.mem_ctrls.wrQLenPdf::1                       1                       # What write queue length does an incoming req see
system.mem_ctrls.wrQLenPdf::2                       1                       # What write queue length does an incoming req see
system.mem_ctrls.wrQLenPdf::3                       1                       # What write queue length does an incoming req see
system.mem_ctrls.wrQLenPdf::4                       1                       # What write queue length does an incoming req see
system.mem_ctrls.wrQLenPdf::5                       1                       # What write queue length does an incoming req see
system.mem_ctrls.wrQLenPdf::6                       1                       # What write queue length does an incoming req see
system.mem_ctrls.wrQLenPdf::7                       1                       # What write queue length does an incoming req see
system.mem_ctrls.wrQLenPdf::8                       1                       # What write queue length does an incoming req see
system.mem_ctrls.wrQLenPdf::9                       1                       # What write queue length does an incoming req see
system.mem_ctrls.wrQLenPdf::10                      1                       # What write queue length does an incoming req see
system.mem_ctrls.wrQLenPdf::11                      1                       # What write queue length does an incoming req see
system.mem_ctrls.wrQLenPdf::12                      1                       # What write queue length does an incoming req see
system.mem_ctrls.wrQLenPdf::13                      1                       # What write queue length does an incoming req see
system.mem_ctrls.wrQLenPdf::14                      1                       # What write queue length does an incoming req see
system.mem_ctrls.wrQLenPdf::15                      2                       # What write queue length does an incoming req see
system.mem_ctrls.wrQLenPdf::16                      6                       # What write queue length does an incoming req see
system.mem_ctrls.wrQLenPdf::17                 168280                       # What write queue length does an incoming req see
system.mem_ctrls.wrQLenPdf::18                 171335                       # What write queue length does an incoming req see
system.mem_ctrls.wrQLenPdf::19                 171333                       # What write queue length does an incoming req see
system.mem_ctrls.wrQLenPdf::20                 171333                       # What write queue length does an incoming req see
system.mem_ctrls.wrQLenPdf::21                 171333                       # What write queue length does an incoming req see
system.mem_ctrls.wrQLenPdf::22                 171333                       # What write queue length does an incoming req see
system.mem_ctrls.wrQLenPdf::23                 171334                       # What write queue length does an incoming req see
system.mem_ctrls.wrQLenPdf::24                 171333                       # What write queue length does an incoming req see
system.mem_ctrls.wrQLenPdf::25                 171334                       # What write queue length does an incoming req see
system.mem_ctrls.wrQLenPdf::26                 174388                       # What write queue length does an incoming req see
system.mem_ctrls.wrQLenPdf::27                 171333                       # What write queue length does an incoming req see
system.mem_ctrls.wrQLenPdf::28                 171334                       # What write queue length does an incoming req see
system.mem_ctrls.wrQLenPdf::29                 171335                       # What write queue length does an incoming req see
system.mem_ctrls.wrQLenPdf::30                 171333                       # What write queue length does an incoming req see
system.mem_ctrls.wrQLenPdf::31                 171333                       # What write queue length does an incoming req see
system.mem_ctrls.wrQLenPdf::32                 171333                       # What write queue length does an incoming req see
system.mem_ctrls.wrQLenPdf::33                      0                       # What write queue length does an incoming req see
system.mem_ctrls.wrQLenPdf::34                      0                       # What write queue length does an incoming req see
system.mem_ctrls.wrQLenPdf::35                      0                       # What write queue length does an incoming req see
system.mem_ctrls.wrQLenPdf::36                      0                       # What write queue length does an incoming req see
system.mem_ctrls.wrQLenPdf::37                      0                       # What write queue length does an incoming req see
system.mem_ctrls.wrQLenPdf::38                      0                       # What write queue length does an incoming req see
system.mem_ctrls.wrQLenPdf::39                      0                       # What write queue length does an incoming req see
system.mem_ctrls.wrQLenPdf::40                      0                       # What write queue length does an incoming req see
system.mem_ctrls.wrQLenPdf::41                      0                       # What write queue length does an incoming req see
system.mem_ctrls.wrQLenPdf::42                      0                       # What write queue length does an incoming req see
system.mem_ctrls.wrQLenPdf::43                      0                       # What write queue length does an incoming req see
system.mem_ctrls.wrQLenPdf::44                      0                       # What write queue length does an incoming req see
system.mem_ctrls.wrQLenPdf::45                      0                       # What write queue length does an incoming req see
system.mem_ctrls.wrQLenPdf::46                      0                       # What write queue length does an incoming req see
system.mem_ctrls.wrQLenPdf::47                      0                       # What write queue length does an incoming req see
system.mem_ctrls.wrQLenPdf::48                      0                       # What write queue length does an incoming req see
system.mem_ctrls.wrQLenPdf::49                      0                       # What write queue length does an incoming req see
system.mem_ctrls.wrQLenPdf::50                      0                       # What write queue length does an incoming req see
system.mem_ctrls.wrQLenPdf::51                      0                       # What write queue length does an incoming req see
system.mem_ctrls.wrQLenPdf::52                      0                       # What write queue length does an incoming req see
system.mem_ctrls.wrQLenPdf::53                      0                       # What write queue length does an incoming req see
system.mem_ctrls.wrQLenPdf::54                      0                       # What write queue length does an incoming req see
system.mem_ctrls.wrQLenPdf::55                      0                       # What write queue length does an incoming req see
system.mem_ctrls.wrQLenPdf::56                      0                       # What write queue length does an incoming req see
system.mem_ctrls.wrQLenPdf::57                      0                       # What write queue length does an incoming req see
system.mem_ctrls.wrQLenPdf::58                      0                       # What write queue length does an incoming req see
system.mem_ctrls.wrQLenPdf::59                      0                       # What write queue length does an incoming req see
system.mem_ctrls.wrQLenPdf::60                      0                       # What write queue length does an incoming req see
system.mem_ctrls.wrQLenPdf::61                      0                       # What write queue length does an incoming req see
system.mem_ctrls.wrQLenPdf::62                      0                       # What write queue length does an incoming req see
system.mem_ctrls.wrQLenPdf::63                      0                       # What write queue length does an incoming req see
system.mem_ctrls.rdPerTurnAround::samples       171333                       # Reads before turning the bus around for writes
system.mem_ctrls.rdPerTurnAround::mean      16.027064                       # Reads before turning the bus around for writes
system.mem_ctrls.rdPerTurnAround::gmean     16.002163                       # Reads before turning the bus around for writes
system.mem_ctrls.rdPerTurnAround::stdev      9.063369                       # Reads before turning the bus around for writes
system.mem_ctrls.rdPerTurnAround::0-127        171330    100.00%    100.00% # Reads before turning the bus around for writes
system.mem_ctrls.rdPerTurnAround::128-255            2      0.00%    100.00% # Reads before turning the bus around for writes
system.mem_ctrls.rdPerTurnAround::3712-3839            1      0.00%    100.00% # Reads before turning the bus around for writes
system.mem_ctrls.rdPerTurnAround::total        171333                       # Reads before turning the bus around for writes
system.mem_ctrls.wrPerTurnAround::samples       171333                       # Writes before turning the bus around for reads
system.mem_ctrls.wrPerTurnAround::mean      16.000070                       # Writes before turning the bus around for reads
system.mem_ctrls.wrPerTurnAround::gmean     16.000066                       # Writes before turning the bus around for reads
system.mem_ctrls.wrPerTurnAround::stdev      0.012319                       # Writes before turning the bus around for reads
system.mem_ctrls.wrPerTurnAround::16           171327    100.00%    100.00% # Writes before turning the bus around for reads
system.mem_ctrls.wrPerTurnAround::17                1      0.00%    100.00% # Writes before turning the bus around for reads
system.mem_ctrls.wrPerTurnAround::18                4      0.00%    100.00% # Writes before turning the bus around for reads
system.mem_ctrls.wrPerTurnAround::19                1      0.00%    100.00% # Writes before turning the bus around for reads
system.mem_ctrls.wrPerTurnAround::total        171333                       # Writes before turning the bus around for reads
system.mem_ctrls.bytesReadWrQ                       0                       # Total number of bytes read from write queue
system.mem_ctrls.bytesReadSys               175741952                       # Total read bytes from the system interface side
system.mem_ctrls.bytesWrittenSys            175447040                       # Total written bytes from the system interface side
system.mem_ctrls.avgRdBWSys                    826.57                       # Average system read bandwidth in MiByte/s
system.mem_ctrls.avgWrBWSys                    825.18                       # Average system write bandwidth in MiByte/s
system.mem_ctrls.totGap                  212615579276                       # Total gap between requests
system.mem_ctrls.avgGap                      38746.65                       # Average gap between requests
system.mem_ctrls.requestorReadBytes::.cpu.inst        26624                       # Per-requestor bytes read from memory
system.mem_ctrls.requestorReadBytes::.cpu.data    175715328                       # Per-requestor bytes read from memory
system.mem_ctrls.requestorWriteBytes::.writebacks    175445760                       # Per-requestor bytes write to memory
system.mem_ctrls.requestorReadRate::.cpu.inst 125221.291471715333                       # Per-requestor bytes read from memory rate (Bytes/sec)
system.mem_ctrls.requestorReadRate::.cpu.data 826446075.102766752243                       # Per-requestor bytes read from memory rate (Bytes/sec)
system.mem_ctrls.requestorWriteRate::.writebacks 825178209.526615619659                       # Per-requestor bytes write to memory rate (Bytes/sec)
system.mem_ctrls.requestorReadAccesses::.cpu.inst          416                       # Per-requestor read serviced memory accesses
system.mem_ctrls.requestorReadAccesses::.cpu.data      2745552                       # Per-requestor read serviced memory accesses
system.mem_ctrls.requestorWriteAccesses::.writebacks      2741360                       # Per-requestor write serviced memory accesses
system.mem_ctrls.requestorReadTotalLat::.cpu.inst     10980018                       # Per-requestor read total memory access latency
system.mem_ctrls.requestorReadTotalLat::.cpu.data  82360290256                       # Per-requestor read total memory access latency
system.mem_ctrls.requestorWriteTotalLat::.writebacks 5230766538554                       # Per-requestor write total memory access latency
system.mem_ctrls.requestorReadAvgLat::.cpu.inst     26394.27                       # Per-requestor read average memory access latency
system.mem_ctrls.requestorReadAvgLat::.cpu.data     29997.72                       # Per-requestor read average memory access latency
system.mem_ctrls.requestorWriteAvgLat::.writebacks   1908091.80                       # Per-requestor write average memory access latency
system.mem_ctrls.dram.bytes_read::.cpu.inst        26624                       # Number of bytes read from this memory
system.mem_ctrls.dram.bytes_read::.cpu.data    175715328                       # Number of bytes read from this memory
system.mem_ctrls.dram.bytes_read::total     175741952                       # Number of bytes read from this memory
system.mem_ctrls.dram.bytes_inst_read::.cpu.inst        26624                       # Number of instructions bytes read from this memory
system.mem_ctrls.dram.bytes_inst_read::total        26624                       # Number of instructions bytes read from this memory
system.mem_ctrls.dram.bytes_written::.writebacks    175447040                       # Number of bytes written to this memory
system.mem_ctrls.dram.bytes_written::total    175447040                       # Number of bytes written to this memory
system.mem_ctrls.dram.num_reads::.cpu.inst          416                       # Number of read requests responded to by this memory
system.mem_ctrls.dram.num_reads::.cpu.data      2745552                       # Number of read requests responded to by this memory
system.mem_ctrls.dram.num_reads::total        2745968                       # Number of read requests responded to by this memory
system.mem_ctrls.dram.num_writes::.writebacks      2741360                       # Number of write requests responded to by this memory
system.mem_ctrls.dram.num_writes::total       2741360                       # Number of write requests responded to by this memory
system.mem_ctrls.dram.bw_read::.cpu.inst       125221                       # Total read bandwidth from this memory (bytes/s)
system.mem_ctrls.dram.bw_read::.cpu.data    826446075                       # Total read bandwidth from this memory (bytes/s)
system.mem_ctrls.dram.bw_read::total        826571296                       # Total read bandwidth from this memory (bytes/s)
system.mem_ctrls.dram.bw_inst_read::.cpu.inst       125221                       # Instruction read bandwidth from this memory (bytes/s)
system.mem_ctrls.dram.bw_inst_read::total       125221                       # Instruction read bandwidth from this memory (bytes/s)
system.mem_ctrls.dram.bw_write::.writebacks    825184230                       # Write bandwidth from this memory (bytes/s)
system.mem_ctrls.dram.bw_write::total       825184230                       # Write bandwidth from this memory (bytes/s)
system.mem_ctrls.dram.bw_total::.writebacks    825184230                       # Total bandwidth to/from this memory (bytes/s)
system.mem_ctrls.dram.bw_total::.cpu.inst       125221                       # Total bandwidth to/from this memory (bytes/s)
system.mem_ctrls.dram.bw_total::.cpu.data    826446075                       # Total bandwidth to/from this memory (bytes/s)
system.mem_ctrls.dram.bw_total::total      1651755526                       # Total bandwidth to/from this memory (bytes/s)
system.mem_ctrls.dram.readBursts              2745968                       # Number of DRAM read bursts
system.mem_ctrls.dram.writeBursts             2741340                       # Number of DRAM write bursts
system.mem_ctrls.dram.perBankRdBursts::0       171713                       # Per bank write bursts
system.mem_ctrls.dram.perBankRdBursts::1       171690                       # Per bank write bursts
system.mem_ctrls.dram.perBankRdBursts::2       171665                       # Per bank write bursts
system.mem_ctrls.dram.perBankRdBursts::3       171587                       # Per bank write bursts
system.mem_ctrls.dram.perBankRdBursts::4       171549                       # Per bank write bursts
system.mem_ctrls.dram.perBankRdBursts::5       171528                       # Per bank write bursts
system.mem_ctrls.dram.perBankRdBursts::6       171551                       # Per bank write bursts
system.mem_ctrls.dram.perBankRdBursts::7       171645                       # Per bank write bursts
system.mem_ctrls.dram.perBankRdBursts::8       171678                       # Per bank write bursts
system.mem_ctrls.dram.perBankRdBursts::9       171625                       # Per bank write bursts
system.mem_ctrls.dram.perBankRdBursts::10       171659                       # Per bank write bursts
system.mem_ctrls.dram.perBankRdBursts::11       171499                       # Per bank write bursts
system.mem_ctrls.dram.perBankRdBursts::12       171496                       # Per bank write bursts
system.mem_ctrls.dram.perBankRdBursts::13       171632                       # Per bank write bursts
system.mem_ctrls.dram.perBankRdBursts::14       171694                       # Per bank write bursts
system.mem_ctrls.dram.perBankRdBursts::15       171757                       # Per bank write bursts
system.mem_ctrls.dram.perBankWrBursts::0       171425                       # Per bank write bursts
system.mem_ctrls.dram.perBankWrBursts::1       171365                       # Per bank write bursts
[...]
system.cpu.dcache.WriteReq_hits::.cpu.data     19320021                       # number of WriteReq hits
system.cpu.dcache.WriteReq_hits::total       19320021                       # number of WriteReq hits
system.cpu.dcache.WriteReq_misses::.cpu.data      2745440                       # number of WriteReq misses
system.cpu.dcache.WriteReq_misses::total      2745440                       # number of WriteReq misses
system.cpu.dcache.WriteReq_miss_latency::.cpu.data 201470164793                       # number of WriteReq miss cycles
system.cpu.dcache.WriteReq_miss_latency::total 201470164793                       # number of WriteReq miss cycles
system.cpu.dcache.WriteReq_accesses::.cpu.data     22065461                       # number of WriteReq accesses(hits+misses)
system.cpu.dcache.WriteReq_accesses::total     22065461                       # number of WriteReq accesses(hits+misses)
system.cpu.dcache.WriteReq_miss_rate::.cpu.data     0.124423                       # miss rate for WriteReq accesses
system.cpu.dcache.WriteReq_miss_rate::total     0.124423                       # miss rate for WriteReq accesses
system.cpu.dcache.WriteReq_avg_miss_latency::.cpu.data 73383.561394                       # average WriteReq miss latency
system.cpu.dcache.WriteReq_avg_miss_latency::total 73383.561394                       # average WriteReq miss latency
system.cpu.dcache.WriteReq_mshr_misses::.cpu.data      2745440                       # number of WriteReq MSHR misses
system.cpu.dcache.WriteReq_mshr_misses::total      2745440                       # number of WriteReq MSHR misses
system.cpu.dcache.WriteReq_mshr_miss_latency::.cpu.data 199943700709                       # number of WriteReq MSHR miss cycles
system.cpu.dcache.WriteReq_mshr_miss_latency::total 199943700709                       # number of WriteReq MSHR miss cycles
system.cpu.dcache.WriteReq_mshr_miss_rate::.cpu.data     0.124423                       # mshr miss rate for WriteReq accesses
system.cpu.dcache.WriteReq_mshr_miss_rate::total     0.124423                       # mshr miss rate for WriteReq accesses
system.cpu.dcache.WriteReq_avg_mshr_miss_latency::.cpu.data 72827.561596                       # average WriteReq mshr miss latency
system.cpu.dcache.WriteReq_avg_mshr_miss_latency::total 72827.561596                       # average WriteReq mshr miss latency
system.cpu.dcache.power_state.pwrStateResidencyTicks::UNDEFINED 212615599848                       # Cumulative time (in ticks) in various power states
system.cpu.dcache.tags.tagsinuse           511.937892                       # Cycle average of tags in use
system.cpu.dcache.tags.total_refs            22223460                       # Total number of references to valid blocks.
system.cpu.dcache.tags.sampled_refs           2745583                       # Sample count of references to valid blocks.
system.cpu.dcache.tags.avg_refs              8.094259                       # Average number of references to valid blocks.
system.cpu.dcache.tags.warmup_cycle            160962                       # Cycle when the warmup percentage was hit.
system.cpu.dcache.tags.occ_blocks::.cpu.data   511.937892                       # Average occupied blocks per requestor
system.cpu.dcache.tags.occ_percent::.cpu.data     0.999879                       # Average percentage of cache occupancy
system.cpu.dcache.tags.occ_percent::total     0.999879                       # Average percentage of cache occupancy
system.cpu.dcache.tags.occ_task_id_blocks::1024          512                       # Occupied blocks per task id
system.cpu.dcache.tags.age_task_id_blocks_1024::0          131                       # Occupied blocks per task id
system.cpu.dcache.tags.age_task_id_blocks_1024::1          381                       # Occupied blocks per task id
system.cpu.dcache.tags.occ_task_id_percent::1024            1                       # Percentage of cache occupancy per task id
system.cpu.dcache.tags.tag_accesses         180535047                       # Number of tag accesses
system.cpu.dcache.tags.data_accesses        180535047                       # Number of data accesses
system.cpu.dcache.tags.power_state.pwrStateResidencyTicks::UNDEFINED 212615599848                       # Cumulative time (in ticks) in various power states
system.cpu.power_state.pwrStateResidencyTicks::ON 212615599848                       # Cumulative time (in ticks) in various power states
system.cpu.branchPred.lookups                 3083421                       # Number of BP lookups
system.cpu.branchPred.condPredicted           3078346                       # Number of conditional branches predicted
system.cpu.branchPred.condIncorrect               898                       # Number of conditional branches incorrect
system.cpu.branchPred.BTBLookups              3077475                       # Number of BTB lookups
system.cpu.branchPred.BTBHits                 3076778                       # Number of BTB hits
system.cpu.branchPred.BTBHitPct             99.977352                       # BTB Hit Percentage
system.cpu.branchPred.RASUsed                    2313                       # Number of times the RAS was used to get a target.
system.cpu.branchPred.RASIncorrect                  2                       # Number of incorrect RAS predictions.
system.cpu.branchPred.indirectLookups             118                       # Number of indirect predictor lookups.
system.cpu.branchPred.indirectHits                 13                       # Number of indirect target hits.
system.cpu.branchPred.indirectMisses              105                       # Number of indirect misses.
system.cpu.branchPred.indirectMispredicted           48                       # Number of mispredicted indirect branches.
system.cpu.commit.commitSquashedInsts         2413455                       # The number of squashed insts skipped by commit
system.cpu.commit.commitNonSpecStalls               1                       # The number of times commit has been forced to stall to communicate backwards
system.cpu.commit.branchMispredicts               698                       # The number of times a branch was mispredicted
system.cpu.commit.numCommittedDist::samples    764456208                       # Number of insts commited each cycle
system.cpu.commit.numCommittedDist::mean     0.051606                       # Number of insts commited each cycle
system.cpu.commit.numCommittedDist::stdev     0.316096                       # Number of insts commited each cycle
system.cpu.commit.numCommittedDist::underflows            0      0.00%      0.00% # Number of insts commited each cycle
system.cpu.commit.numCommittedDist::0       737277093     96.44%     96.44% # Number of insts commited each cycle
system.cpu.commit.numCommittedDist::1        19247921      2.52%     98.96% # Number of insts commited each cycle
system.cpu.commit.numCommittedDist::2         4782655      0.63%     99.59% # Number of insts commited each cycle
system.cpu.commit.numCommittedDist::3         2760673      0.36%     99.95% # Number of insts commited each cycle
system.cpu.commit.numCommittedDist::4           47373      0.01%     99.96% # Number of insts commited each cycle
system.cpu.commit.numCommittedDist::5          152505      0.02%     99.98% # Number of insts commited each cycle
system.cpu.commit.numCommittedDist::6           50208      0.01%     99.98% # Number of insts commited each cycle
system.cpu.commit.numCommittedDist::7             184      0.00%     99.98% # Number of insts commited each cycle
system.cpu.commit.numCommittedDist::8          137596      0.02%    100.00% # Number of insts commited each cycle
system.cpu.commit.numCommittedDist::overflows            0      0.00%    100.00% # Number of insts commited each cycle
system.cpu.commit.numCommittedDist::min_value            0                       # Number of insts commited each cycle
system.cpu.commit.numCommittedDist::max_value            8                       # Number of insts commited each cycle
system.cpu.commit.numCommittedDist::total    764456208                       # Number of insts commited each cycle
system.cpu.commit.instsCommitted             20000001                       # Number of instructions committed
system.cpu.commit.opsCommitted               39450571                       # Number of ops (including micro ops) committed
system.cpu.commit.memRefs                    22229671                       # Number of memory references committed
system.cpu.commit.loads                        164196                       # Number of loads committed
system.cpu.commit.amos                              0                       # Number of atomic instructions committed
system.cpu.commit.membars                           0                       # Number of memory barriers committed
system.cpu.commit.branches                    2781128                       # Number of branches committed
system.cpu.commit.vector                            0                       # Number of committed Vector instructions.
system.cpu.commit.floating                   21941054                       # Number of committed floating point instructions.
system.cpu.commit.integer                    39449810                       # Number of committed integer instructions.
system.cpu.commit.functionCalls                  2130                       # Number of function calls committed.
system.cpu.commit.committedInstType_0::No_OpClass          550      0.00%      0.00% # Class of committed instruction
system.cpu.commit.committedInstType_0::IntAlu     17219452     43.65%     43.65% # Class of committed instruction
system.cpu.commit.committedInstType_0::IntMult          631      0.00%     43.65% # Class of committed instruction
system.cpu.commit.committedInstType_0::IntDiv           21      0.00%     43.65% # Class of committed instruction
system.cpu.commit.committedInstType_0::FloatAdd            8      0.00%     43.65% # Class of committed instruction
system.cpu.commit.committedInstType_0::FloatCmp            0      0.00%     43.65% # Class of committed instruction
system.cpu.commit.committedInstType_0::FloatCvt            0      0.00%     43.65% # Class of committed instruction
system.cpu.commit.committedInstType_0::FloatMult            0      0.00%     43.65% # Class of committed instruction
system.cpu.commit.committedInstType_0::FloatMultAcc            0      0.00%     43.65% # Class of committed instruction
system.cpu.commit.committedInstType_0::FloatDiv            0      0.00%     43.65% # Class of committed instruction
system.cpu.commit.committedInstType_0::FloatMisc            0      0.00%     43.65% # Class of committed instruction
system.cpu.commit.committedInstType_0::FloatSqrt            0      0.00%     43.65% # Class of committed instruction
system.cpu.commit.committedInstType_0::SimdAdd            0      0.00%     43.65% # Class of committed instruction
system.cpu.commit.committedInstType_0::SimdAddAcc            0      0.00%     43.65% # Class of committed instruction
system.cpu.commit.committedInstType_0::SimdAlu           70      0.00%     43.65% # Class of committed instruction
system.cpu.commit.committedInstType_0::SimdCmp            0      0.00%     43.65% # Class of committed instruction
system.cpu.commit.committedInstType_0::SimdCvt           56      0.00%     43.65% # Class of committed instruction
system.cpu.commit.committedInstType_0::SimdMisc          112      0.00%     43.65% # Class of committed instruction
system.cpu.commit.committedInstType_0::SimdMult            0      0.00%     43.65% # Class of committed instruction
system.cpu.commit.committedInstType_0::SimdMultAcc            0      0.00%     43.65% # Class of committed instruction
system.cpu.commit.committedInstType_0::SimdShift            0      0.00%     43.65% # Class of committed instruction
system.cpu.commit.committedInstType_0::SimdShiftAcc            0      0.00%     43.65% # Class of committed instruction
system.cpu.commit.committedInstType_0::SimdDiv            0      0.00%     43.65% # Class of committed instruction
system.cpu.commit.committedInstType_0::SimdSqrt            0      0.00%     43.65% # Class of committed instruction
system.cpu.commit.committedInstType_0::SimdFloatAdd            0      0.00%     43.65% # Class of committed instruction
system.cpu.commit.committedInstType_0::SimdFloatAlu            0      0.00%     43.65% # Class of committed instruction
system.cpu.commit.committedInstType_0::SimdFloatCmp            0      0.00%     43.65% # Class of committed instruction
system.cpu.commit.committedInstType_0::SimdFloatCvt            0      0.00%     43.65% # Class of committed instruction
system.cpu.commit.committedInstType_0::SimdFloatDiv            0      0.00%     43.65% # Class of committed instruction
system.cpu.commit.committedInstType_0::SimdFloatMisc            0      0.00%     43.65% # Class of committed instruction
system.cpu.commit.committedInstType_0::SimdFloatMult            0      0.00%     43.65% # Class of committed instruction
system.cpu.commit.committedInstType_0::SimdFloatMultAcc            0      0.00%     43.65% # Class of committed instruction
system.cpu.commit.committedInstType_0::SimdFloatSqrt            0      0.00%     43.65% # Class of committed instruction
system.cpu.commit.committedInstType_0::SimdReduceAdd            0      0.00%     43.65% # Class of committed instruction
system.cpu.commit.committedInstType_0::SimdReduceAlu            0      0.00%     43.65% # Class of committed instruction
system.cpu.commit.committedInstType_0::SimdReduceCmp            0      0.00%     43.65% # Class of committed instruction
system.cpu.commit.committedInstType_0::SimdFloatReduceAdd            0      0.00%     43.65% # Class of committed instruction
system.cpu.commit.committedInstType_0::SimdFloatReduceCmp            0      0.00%     43.65% # Class of committed instruction
system.cpu.commit.committedInstType_0::SimdAes            0      0.00%     43.65% # Class of committed instruction
system.cpu.commit.committedInstType_0::SimdAesMix            0      0.00%     43.65% # Class of committed instruction
system.cpu.commit.committedInstType_0::SimdSha1Hash            0      0.00%     43.65% # Class of committed instruction
system.cpu.commit.committedInstType_0::SimdSha1Hash2            0      0.00%     43.65% # Class of committed instruction
system.cpu.commit.committedInstType_0::SimdSha256Hash            0      0.00%     43.65% # Class of committed instruction
system.cpu.commit.committedInstType_0::SimdSha256Hash2            0      0.00%     43.65% # Class of committed instruction
system.cpu.commit.committedInstType_0::SimdShaSigma2            0      0.00%     43.65% # Class of committed instruction
system.cpu.commit.committedInstType_0::SimdShaSigma3            0      0.00%     43.65% # Class of committed instruction
system.cpu.commit.committedInstType_0::SimdPredAlu            0      0.00%     43.65% # Class of committed instruction
system.cpu.commit.committedInstType_0::MemRead       164154      0.42%     44.07% # Class of committed instruction
system.cpu.commit.committedInstType_0::MemWrite       124731      0.32%     44.38% # Class of committed instruction
system.cpu.commit.committedInstType_0::FloatMemRead           42      0.00%     44.38% # Class of committed instruction
system.cpu.commit.committedInstType_0::FloatMemWrite     21940744     55.62%    100.00% # Class of committed instruction
system.cpu.commit.committedInstType_0::IprAccess            0      0.00%    100.00% # Class of committed instruction
system.cpu.commit.committedInstType_0::InstPrefetch            0      0.00%    100.00% # Class of committed instruction
system.cpu.commit.committedInstType_0::total     39450571                       # Class of committed instruction
system.cpu.commit.commitEligibleSamples        137596                       # number cycles where commit BW limit reached
system.cpu.fetch.icacheStallCycles            6193249                       # Number of cycles fetch is stalled on an Icache miss
system.cpu.fetch.insts                       22205179                       # Number of instructions fetch has processed
system.cpu.fetch.branches                     3083421                       # Number of branches that fetch encountered
system.cpu.fetch.predictedBranches            3079104                       # Number of branches that fetch has predicted taken
system.cpu.fetch.cycles                     758521313                       # Number of cycles fetch has run and was not squashing or blocked
system.cpu.fetch.squashCycles                   87562                       # Number of cycles fetch has spent squashing
system.cpu.fetch.miscStallCycles                    6                       # Number of cycles fetch has spent waiting on interrupts,or bad addresses, or out of MSHRs
system.cpu.fetch.pendingTrapStallCycles            10                       # Number of stall cycles due to pending traps
system.cpu.fetch.pendingQuiesceStallCycles            1                       # Number of stall cycles due to pending quiesce instructions
system.cpu.fetch.icacheWaitRetryStallCycles           89                       # Number of stall cycles due to full MSHR
system.cpu.fetch.cacheLines                   6167529                       # Number of cache lines fetched
system.cpu.fetch.icacheSquashes                   445                       # Number of outstanding Icache misses that were squashed
system.cpu.fetch.nisnDist::samples          764758449                       # Number of instructions fetched each cycle (Total)
system.cpu.fetch.nisnDist::mean              0.057344                       # Number of instructions fetched each cycle (Total)
system.cpu.fetch.nisnDist::stdev             0.563743                       # Number of instructions fetched each cycle (Total)
system.cpu.fetch.nisnDist::underflows               0      0.00%      0.00% # Number of instructions fetched each cycle (Total)
system.cpu.fetch.nisnDist::0                754974682     98.72%     98.72% # Number of instructions fetched each cycle (Total)
system.cpu.fetch.nisnDist::1                    27584      0.00%     98.72% # Number of instructions fetched each cycle (Total)
system.cpu.fetch.nisnDist::2                  2968710      0.39%     99.11% # Number of instructions fetched each cycle (Total)
system.cpu.fetch.nisnDist::3                     8499      0.00%     99.11% # Number of instructions fetched each cycle (Total)
system.cpu.fetch.nisnDist::4                  3608037      0.47%     99.59% # Number of instructions fetched each cycle (Total)
system.cpu.fetch.nisnDist::5                     8048      0.00%     99.59% # Number of instructions fetched each cycle (Total)
system.cpu.fetch.nisnDist::6                   953113      0.12%     99.71% # Number of instructions fetched each cycle (Total)
system.cpu.fetch.nisnDist::7                     5792      0.00%     99.71% # Number of instructions fetched each cycle (Total)
system.cpu.fetch.nisnDist::8                  2203984      0.29%    100.00% # Number of instructions fetched each cycle (Total)
system.cpu.fetch.nisnDist::overflows                0      0.00%    100.00% # Number of instructions fetched each cycle (Total)
system.cpu.fetch.nisnDist::min_value                0                       # Number of instructions fetched each cycle (Total)
system.cpu.fetch.nisnDist::max_value                8                       # Number of instructions fetched each cycle (Total)
system.cpu.fetch.nisnDist::total            764758449                       # Number of instructions fetched each cycle (Total)
system.cpu.fetch.branchRate                  0.004032                       # Number of branch fetches per cycle
system.cpu.fetch.rate                        0.029034                       # Number of inst fetches per cycle

---------- End Simulation Statistics   ----------
