
---------- Begin Simulation Statistics ----------
final_tick                               8934154066910                       # Number of ticks from beginning of simulation (restored from checkpoints and never reset)
host_inst_rate                                 153927                       # Simulator instruction rate (inst/s)
host_mem_usage                               16942212                       # Number of bytes of host memory used
host_op_rate                                   239441                       # Simulator op (including micro ops) rate (op/s)
host_seconds                                    64.97                       # Real time elapsed on the host
host_tick_rate                               97696484                       # Simulator tick rate (ticks/s)
sim_freq                                 1000000000000                       # Frequency of simulated ticks
sim_insts                                    10000022                       # Number of instructions simulated
sim_ops                                      15555590                       # Number of ops (including micro ops) simulated
sim_seconds                                  0.006347                       # Number of seconds simulated
sim_ticks                                  6346969910                       # Number of ticks simulated
system.cpu.Branches                                 4                       # Number of branches fetched
system.cpu.committedInsts                          22                       # Number of instructions committed
system.cpu.committedOps                            33                       # Number of ops (including micro ops) committed
system.cpu.dtb.rdAccesses                           3                       # TLB accesses on read requests
system.cpu.dtb.rdMisses                             0                       # TLB misses on read requests
system.cpu.dtb.wrAccesses                           0                       # TLB accesses on write requests
system.cpu.dtb.wrMisses                             0                       # TLB misses on write requests
system.cpu.idle_fraction                            0                       # Percentage of idle cycles
system.cpu.itb.rdAccesses                           0                       # TLB accesses on read requests
system.cpu.itb.rdMisses                             0                       # TLB misses on read requests
system.cpu.itb.wrAccesses                          24                       # TLB accesses on write requests
system.cpu.itb.wrMisses                             0                       # TLB misses on write requests
system.cpu.not_idle_fraction                        1                       # Percentage of non-idle cycles
system.cpu.numCycles                               35                       # number of cpu cycles simulated
system.cpu.numWorkItemsCompleted                    0                       # number of work items this cpu completed
system.cpu.numWorkItemsStarted                      0                       # number of work items this cpu started
system.cpu.num_busy_cycles                         35                       # Number of busy cycles
system.cpu.num_cc_register_reads                   23                       # number of times the CC registers were read
system.cpu.num_cc_register_writes                  20                       # number of times the CC registers were written
system.cpu.num_conditional_control_insts            4                       # number of instructions that are conditional controls
system.cpu.num_fp_alu_accesses                      0                       # Number of float alu accesses
system.cpu.num_fp_insts                             0                       # number of float instructions
system.cpu.num_fp_register_reads                    0                       # number of times the floating registers were read
system.cpu.num_fp_register_writes                   0                       # number of times the floating registers were written
system.cpu.num_func_calls                           0                       # number of times a function call or return occured
system.cpu.num_idle_cycles                          0                       # Number of idle cycles
system.cpu.num_int_alu_accesses                    33                       # Number of integer alu accesses
system.cpu.num_int_insts                           33                       # number of integer instructions
system.cpu.num_int_register_reads                  60                       # number of times the integer registers were read
system.cpu.num_int_register_writes                 29                       # number of times the integer registers were written
system.cpu.num_load_insts                           3                       # Number of load instructions
system.cpu.num_mem_refs                             3                       # number of memory refs
system.cpu.num_store_insts                          0                       # Number of store instructions
system.cpu.num_vec_alu_accesses                     0                       # Number of vector alu accesses
system.cpu.num_vec_insts                            0                       # number of vector instructions
system.cpu.num_vec_register_reads                   0                       # number of times the vector registers were read
system.cpu.num_vec_register_writes                  0                       # number of times the vector registers were written
system.cpu.op_class::No_OpClass                     0      0.00%      0.00% # Class of executed instruction
system.cpu.op_class::IntAlu                        30     90.91%     90.91% # Class of executed instruction
system.cpu.op_class::IntMult                        0      0.00%     90.91% # Class of executed instruction
system.cpu.op_class::IntDiv                         0      0.00%     90.91% # Class of executed instruction
system.cpu.op_class::FloatAdd                       0      0.00%     90.91% # Class of executed instruction
system.cpu.op_class::FloatCmp                       0      0.00%     90.91% # Class of executed instruction
system.cpu.op_class::FloatCvt                       0      0.00%     90.91% # Class of executed instruction
system.cpu.op_class::FloatMult                      0      0.00%     90.91% # Class of executed instruction
system.cpu.op_class::FloatMultAcc                   0      0.00%     90.91% # Class of executed instruction
system.cpu.op_class::FloatDiv                       0      0.00%     90.91% # Class of executed instruction
system.cpu.op_class::FloatMisc                      0      0.00%     90.91% # Class of executed instruction
system.cpu.op_class::FloatSqrt                      0      0.00%     90.91% # Class of executed instruction
system.cpu.op_class::SimdAdd                        0      0.00%     90.91% # Class of executed instruction
system.cpu.op_class::SimdAddAcc                     0      0.00%     90.91% # Class of executed instruction
system.cpu.op_class::SimdAlu                        0      0.00%     90.91% # Class of executed instruction
system.cpu.op_class::SimdCmp                        0      0.00%     90.91% # Class of executed instruction
system.cpu.op_class::SimdCvt                        0      0.00%     90.91% # Class of executed instruction
system.cpu.op_class::SimdMisc                       0      0.00%     90.91% # Class of executed instruction
system.cpu.op_class::SimdMult                       0      0.00%     90.91% # Class of executed instruction
system.cpu.op_class::SimdMultAcc                    0      0.00%     90.91% # Class of executed instruction
system.cpu.op_class::SimdShift                      0      0.00%     90.91% # Class of executed instruction
system.cpu.op_class::SimdShiftAcc                   0      0.00%     90.91% # Class of executed instruction
system.cpu.op_class::SimdDiv                        0      0.00%     90.91% # Class of executed instruction
system.cpu.op_class::SimdSqrt                       0      0.00%     90.91% # Class of executed instruction
system.cpu.op_class::SimdFloatAdd                   0      0.00%     90.91% # Class of executed instruction
system.cpu.op_class::SimdFloatAlu                   0      0.00%     90.91% # Class of executed instruction
system.cpu.op_class::SimdFloatCmp                   0      0.00%     90.91% # Class of executed instruction
system.cpu.op_class::SimdFloatCvt                   0      0.00%     90.91% # Class of executed instruction
system.cpu.op_class::SimdFloatDiv                   0      0.00%     90.91% # Class of executed instruction
system.cpu.op_class::SimdFloatMisc                  0      0.00%     90.91% # Class of executed instruction
system.cpu.op_class::SimdFloatMult                  0      0.00%     90.91% # Class of executed instruction
system.cpu.op_class::SimdFloatMultAcc               0      0.00%     90.91% # Class of executed instruction
system.cpu.op_class::SimdFloatSqrt                  0      0.00%     90.91% # Class of executed instruction
system.cpu.op_class::SimdReduceAdd                  0      0.00%     90.91% # Class of executed instruction
system.cpu.op_class::SimdReduceAlu                  0      0.00%     90.91% # Class of executed instruction
system.cpu.op_class::SimdReduceCmp                  0      0.00%     90.91% # Class of executed instruction
system.cpu.op_class::SimdFloatReduceAdd             0      0.00%     90.91% # Class of executed instruction
system.cpu.op_class::SimdFloatReduceCmp             0      0.00%     90.91% # Class of executed instruction
system.cpu.op_class::SimdAes                        0      0.00%     90.91% # Class of executed instruction
system.cpu.op_class::SimdAesMix                     0      0.00%     90.91% # Class of executed instruction
system.cpu.op_class::SimdSha1Hash                   0      0.00%     90.91% # Class of executed instruction
system.cpu.op_class::SimdSha1Hash2                  0      0.00%     90.91% # Class of executed instruction
system.cpu.op_class::SimdSha256Hash                 0      0.00%     90.91% # Class of executed instruction
system.cpu.op_class::SimdSha256Hash2                0      0.00%     90.91% # Class of executed instruction
system.cpu.op_class::SimdShaSigma2                  0      0.00%     90.91% # Class of executed instruction
system.cpu.op_class::SimdShaSigma3                  0      0.00%     90.91% # Class of executed instruction
system.cpu.op_class::SimdPredAlu                    0      0.00%     90.91% # Class of executed instruction
system.cpu.op_class::MemRead                        3      9.09%    100.00% # Class of executed instruction
system.cpu.op_class::MemWrite                       0      0.00%    100.00% # Class of executed instruction
system.cpu.op_class::FloatMemRead                   0      0.00%    100.00% # Class of executed instruction
system.cpu.op_class::FloatMemWrite                  0      0.00%    100.00% # Class of executed instruction
system.cpu.op_class::IprAccess                      0      0.00%    100.00% # Class of executed instruction
system.cpu.op_class::InstPrefetch                   0      0.00%    100.00% # Class of executed instruction
system.cpu.op_class::total                         33                       # Class of executed instruction
system.cpu.workload.numSyscalls                     0                       # Number of system calls
system.membus.snoop_filter.hit_multi_requests            0                       # Number of requests hitting in the snoop filter with multiple (>1) holders of the requested data.
system.membus.snoop_filter.hit_multi_snoops            0                       # Number of snoops hitting in the snoop filter with multiple (>1) holders of the requested data.
system.membus.snoop_filter.hit_single_requests       273683                       # Number of requests hitting in the snoop filter with a single holder of the requested data.
system.membus.snoop_filter.hit_single_snoops            0                       # Number of snoops hitting in the snoop filter with a single holder of the requested data.
system.membus.snoop_filter.tot_requests        551466                       # Total number of requests made to the snoop filter.
system.membus.snoop_filter.tot_snoops               0                       # Total number of snoops made to the snoop filter.
system.switch_cpus.branchPred.BTBCorrect            0                       # Number of correct BTB predictions (this stat may not work properly.
system.switch_cpus.branchPred.BTBHitPct      0.000000                       # BTB Hit Percentage
system.switch_cpus.branchPred.BTBHits               0                       # Number of BTB hits
system.switch_cpus.branchPred.BTBLookups      2222298                       # Number of BTB lookups
system.switch_cpus.branchPred.RASInCorrect            0                       # Number of incorrect RAS predictions.
system.switch_cpus.branchPred.condIncorrect           39                       # Number of conditional branches incorrect
system.switch_cpus.branchPred.condPredicted      2222310                       # Number of conditional branches predicted
system.switch_cpus.branchPred.indirectHits      2222243                       # Number of indirect target hits.
system.switch_cpus.branchPred.indirectLookups      2222298                       # Number of indirect predictor lookups.
system.switch_cpus.branchPred.indirectMisses           55                       # Number of indirect misses.
system.switch_cpus.branchPred.lookups         2222363                       # Number of BP lookups
system.switch_cpus.branchPred.usedRAS              24                       # Number of times the RAS was used to get a target.
system.switch_cpus.branchPredindirectMispredicted            7                       # Number of mispredicted indirect branches.
system.switch_cpus.cc_regfile_reads          12222437                       # number of cc regfile reads
system.switch_cpus.cc_regfile_writes          8889107                       # number of cc regfile writes
system.switch_cpus.commit.amos                      0                       # Number of atomic instructions committed
system.switch_cpus.commit.branchMispredicts           39                       # The number of times a branch was mispredicted
system.switch_cpus.commit.branches            2222222                       # Number of branches committed
system.switch_cpus.commit.bw_lim_events       1111099                       # number cycles where commit BW limit reached
system.switch_cpus.commit.commitSquashedInsts          839                       # The number of squashed insts skipped by commit
system.switch_cpus.commit.committedInsts     10000000                       # Number of instructions committed
system.switch_cpus.commit.committedOps       15555557                       # Number of ops (including micro ops) committed
system.switch_cpus.commit.committed_per_cycle::samples     22830506                       # Number of insts commited each cycle
system.switch_cpus.commit.committed_per_cycle::mean     0.681350                       # Number of insts commited each cycle
system.switch_cpus.commit.committed_per_cycle::stdev     2.027443                       # Number of insts commited each cycle
system.switch_cpus.commit.committed_per_cycle::underflows            0      0.00%      0.00% # Number of insts commited each cycle
system.switch_cpus.commit.committed_per_cycle::0     19774928     86.62%     86.62% # Number of insts commited each cycle
system.switch_cpus.commit.committed_per_cycle::1       833354      3.65%     90.27% # Number of insts commited each cycle
system.switch_cpus.commit.committed_per_cycle::2            1      0.00%     90.27% # Number of insts commited each cycle
system.switch_cpus.commit.committed_per_cycle::3       277773      1.22%     91.48% # Number of insts commited each cycle
system.switch_cpus.commit.committed_per_cycle::4            6      0.00%     91.48% # Number of insts commited each cycle
system.switch_cpus.commit.committed_per_cycle::5           11      0.00%     91.48% # Number of insts commited each cycle
system.switch_cpus.commit.committed_per_cycle::6       833327      3.65%     95.13% # Number of insts commited each cycle
system.switch_cpus.commit.committed_per_cycle::7            7      0.00%     95.13% # Number of insts commited each cycle
system.switch_cpus.commit.committed_per_cycle::8      1111099      4.87%    100.00% # Number of insts commited each cycle
system.switch_cpus.commit.committed_per_cycle::overflows            0      0.00%    100.00% # Number of insts commited each cycle
system.switch_cpus.commit.committed_per_cycle::min_value            0                       # Number of insts commited each cycle
system.switch_cpus.commit.committed_per_cycle::max_value            8                       # Number of insts commited each cycle
system.switch_cpus.commit.committed_per_cycle::total     22830506                       # Number of insts commited each cycle
system.switch_cpus.commit.fp_insts                  0                       # Number of committed floating point instructions.
system.switch_cpus.commit.function_calls            0                       # Number of function calls committed.
system.switch_cpus.commit.int_insts          15555557                       # Number of committed integer instructions.
system.switch_cpus.commit.loads               1111111                       # Number of loads committed
system.switch_cpus.commit.membars                   0                       # Number of memory barriers committed
system.switch_cpus.commit.mispred_commit_branch           23                       # mein_hi_hun
system.switch_cpus.commit.op_class_0::No_OpClass            0      0.00%      0.00% # Class of committed instruction
system.switch_cpus.commit.op_class_0::IntAlu     14444446     92.86%     92.86% # Class of committed instruction
system.switch_cpus.commit.op_class_0::IntMult            0      0.00%     92.86% # Class of committed instruction
system.switch_cpus.commit.op_class_0::IntDiv            0      0.00%     92.86% # Class of committed instruction
system.switch_cpus.commit.op_class_0::FloatAdd            0      0.00%     92.86% # Class of committed instruction
system.switch_cpus.commit.op_class_0::FloatCmp            0      0.00%     92.86% # Class of committed instruction
system.switch_cpus.commit.op_class_0::FloatCvt            0      0.00%     92.86% # Class of committed instruction
system.switch_cpus.commit.op_class_0::FloatMult            0      0.00%     92.86% # Class of committed instruction
system.switch_cpus.commit.op_class_0::FloatMultAcc            0      0.00%     92.86% # Class of committed instruction
system.switch_cpus.commit.op_class_0::FloatDiv            0      0.00%     92.86% # Class of committed instruction
system.switch_cpus.commit.op_class_0::FloatMisc            0      0.00%     92.86% # Class of committed instruction
system.switch_cpus.commit.op_class_0::FloatSqrt            0      0.00%     92.86% # Class of committed instruction
system.switch_cpus.commit.op_class_0::SimdAdd            0      0.00%     92.86% # Class of committed instruction
system.switch_cpus.commit.op_class_0::SimdAddAcc            0      0.00%     92.86% # Class of committed instruction
system.switch_cpus.commit.op_class_0::SimdAlu            0      0.00%     92.86% # Class of committed instruction
system.switch_cpus.commit.op_class_0::SimdCmp            0      0.00%     92.86% # Class of committed instruction
system.switch_cpus.commit.op_class_0::SimdCvt            0      0.00%     92.86% # Class of committed instruction
system.switch_cpus.commit.op_class_0::SimdMisc            0      0.00%     92.86% # Class of committed instruction
system.switch_cpus.commit.op_class_0::SimdMult            0      0.00%     92.86% # Class of committed instruction
system.switch_cpus.commit.op_class_0::SimdMultAcc            0      0.00%     92.86% # Class of committed instruction
system.switch_cpus.commit.op_class_0::SimdShift            0      0.00%     92.86% # Class of committed instruction
system.switch_cpus.commit.op_class_0::SimdShiftAcc            0      0.00%     92.86% # Class of committed instruction
system.switch_cpus.commit.op_class_0::SimdDiv            0      0.00%     92.86% # Class of committed instruction
system.switch_cpus.commit.op_class_0::SimdSqrt            0      0.00%     92.86% # Class of committed instruction
system.switch_cpus.commit.op_class_0::SimdFloatAdd            0      0.00%     92.86% # Class of committed instruction
system.switch_cpus.commit.op_class_0::SimdFloatAlu            0      0.00%     92.86% # Class of committed instruction
system.switch_cpus.commit.op_class_0::SimdFloatCmp            0      0.00%     92.86% # Class of committed instruction
system.switch_cpus.commit.op_class_0::SimdFloatCvt            0      0.00%     92.86% # Class of committed instruction
system.switch_cpus.commit.op_class_0::SimdFloatDiv            0      0.00%     92.86% # Class of committed instruction
system.switch_cpus.commit.op_class_0::SimdFloatMisc            0      0.00%     92.86% # Class of committed instruction
system.switch_cpus.commit.op_class_0::SimdFloatMult            0      0.00%     92.86% # Class of committed instruction
system.switch_cpus.commit.op_class_0::SimdFloatMultAcc            0      0.00%     92.86% # Class of committed instruction
system.switch_cpus.commit.op_class_0::SimdFloatSqrt            0      0.00%     92.86% # Class of committed instruction
system.switch_cpus.commit.op_class_0::SimdReduceAdd            0      0.00%     92.86% # Class of committed instruction
system.switch_cpus.commit.op_class_0::SimdReduceAlu            0      0.00%     92.86% # Class of committed instruction
system.switch_cpus.commit.op_class_0::SimdReduceCmp            0      0.00%     92.86% # Class of committed instruction
system.switch_cpus.commit.op_class_0::SimdFloatReduceAdd            0      0.00%     92.86% # Class of committed instruction
system.switch_cpus.commit.op_class_0::SimdFloatReduceCmp            0      0.00%     92.86% # Class of committed instruction
system.switch_cpus.commit.op_class_0::SimdAes            0      0.00%     92.86% # Class of committed instruction
system.switch_cpus.commit.op_class_0::SimdAesMix            0      0.00%     92.86% # Class of committed instruction
system.switch_cpus.commit.op_class_0::SimdSha1Hash            0      0.00%     92.86% # Class of committed instruction
system.switch_cpus.commit.op_class_0::SimdSha1Hash2            0      0.00%     92.86% # Class of committed instruction
system.switch_cpus.commit.op_class_0::SimdSha256Hash            0      0.00%     92.86% # Class of committed instruction
system.switch_cpus.commit.op_class_0::SimdSha256Hash2            0      0.00%     92.86% # Class of committed instruction
system.switch_cpus.commit.op_class_0::SimdShaSigma2            0      0.00%     92.86% # Class of committed instruction
system.switch_cpus.commit.op_class_0::SimdShaSigma3            0      0.00%     92.86% # Class of committed instruction
system.switch_cpus.commit.op_class_0::SimdPredAlu            0      0.00%     92.86% # Class of committed instruction
system.switch_cpus.commit.op_class_0::MemRead      1111111      7.14%    100.00% # Class of committed instruction
system.switch_cpus.commit.op_class_0::MemWrite            0      0.00%    100.00% # Class of committed instruction
system.switch_cpus.commit.op_class_0::FloatMemRead            0      0.00%    100.00% # Class of committed instruction
system.switch_cpus.commit.op_class_0::FloatMemWrite            0      0.00%    100.00% # Class of committed instruction
system.switch_cpus.commit.op_class_0::IprAccess            0      0.00%    100.00% # Class of committed instruction
system.switch_cpus.commit.op_class_0::InstPrefetch            0      0.00%    100.00% # Class of committed instruction
system.switch_cpus.commit.op_class_0::total     15555557                       # Class of committed instruction
system.switch_cpus.commit.refs                1111111                       # Number of memory references committed
system.switch_cpus.commit.swp_count                 0                       # Number of s/w prefetches committed
system.switch_cpus.commit.vec_insts                 0                       # Number of committed Vector instructions.
system.switch_cpus.committedInsts            10000000                       # Number of Instructions Simulated
system.switch_cpus.committedOps              15555557                       # Number of Ops (including micro ops) Simulated
system.switch_cpus.cpi                       2.283079                       # CPI: Cycles Per Instruction
system.switch_cpus.cpi_total                 2.283079                       # CPI: Total CPI of All Threads
system.switch_cpus.decode.BlockedCycles      20556306                       # Number of cycles decode is blocked
system.switch_cpus.decode.DecodedInsts       15556857                       # Number of instructions handled by decode
system.switch_cpus.decode.IdleCycles           329675                       # Number of cycles decode is idle
system.switch_cpus.decode.RunCycles            774597                       # Number of cycles decode is running
system.switch_cpus.decode.SquashCycles             39                       # Number of cycles decode is squashing
system.switch_cpus.decode.UnblockCycles       1170036                       # Number of cycles decode is unblocking
system.switch_cpus.dtb.rdAccesses             1111137                       # TLB accesses on read requests
system.switch_cpus.dtb.rdMisses                  4340                       # TLB misses on read requests
system.switch_cpus.dtb.wrAccesses                  37                       # TLB accesses on write requests
system.switch_cpus.dtb.wrMisses                     2                       # TLB misses on write requests
system.switch_cpus.fetch.Branches             2222363                       # Number of branches that fetch encountered
system.switch_cpus.fetch.CacheLines                99                       # Number of cache lines fetched
system.switch_cpus.fetch.Cycles              22830259                       # Number of cycles fetch has run and was not squashing or blocked
system.switch_cpus.fetch.IcacheSquashes             9                       # Number of outstanding Icache misses that were squashed
system.switch_cpus.fetch.Insts               10000765                       # Number of instructions fetch has processed
system.switch_cpus.fetch.PendingTrapStallCycles           37                       # Number of stall cycles due to pending traps
system.switch_cpus.fetch.SquashCycles              78                       # Number of cycles fetch has spent squashing
system.switch_cpus.fetch.branchRate          0.097341                       # Number of branch fetches per cycle
system.switch_cpus.fetch.icacheStallCycles          322                       # Number of cycles fetch is stalled on an Icache miss
system.switch_cpus.fetch.predictedBranches      2222267                       # Number of branches that fetch has predicted taken
system.switch_cpus.fetch.rate                0.438038                       # Number of inst fetches per cycle
system.switch_cpus.fetch.rateDist::samples     22830657                       # Number of instructions fetched each cycle (Total)
system.switch_cpus.fetch.rateDist::mean      0.681412                       # Number of instructions fetched each cycle (Total)
system.switch_cpus.fetch.rateDist::stdev     1.873367                       # Number of instructions fetched each cycle (Total)
system.switch_cpus.fetch.rateDist::underflows            0      0.00%      0.00% # Number of instructions fetched each cycle (Total)
system.switch_cpus.fetch.rateDist::0         19252496     84.33%     84.33% # Number of instructions fetched each cycle (Total)
system.switch_cpus.fetch.rateDist::1           800200      3.50%     87.83% # Number of instructions fetched each cycle (Total)
system.switch_cpus.fetch.rateDist::2           244601      1.07%     88.90% # Number of instructions fetched each cycle (Total)
system.switch_cpus.fetch.rateDist::3           522382      2.29%     91.19% # Number of instructions fetched each cycle (Total)
system.switch_cpus.fetch.rateDist::4            33170      0.15%     91.34% # Number of instructions fetched each cycle (Total)
system.switch_cpus.fetch.rateDist::5           899677      3.94%     95.28% # Number of instructions fetched each cycle (Total)
system.switch_cpus.fetch.rateDist::6           277787      1.22%     96.49% # Number of instructions fetched each cycle (Total)
system.switch_cpus.fetch.rateDist::7                0      0.00%     96.49% # Number of instructions fetched each cycle (Total)
system.switch_cpus.fetch.rateDist::8           800344      3.51%    100.00% # Number of instructions fetched each cycle (Total)
system.switch_cpus.fetch.rateDist::overflows            0      0.00%    100.00% # Number of instructions fetched each cycle (Total)
system.switch_cpus.fetch.rateDist::min_value            0                       # Number of instructions fetched each cycle (Total)
system.switch_cpus.fetch.rateDist::max_value            8                       # Number of instructions fetched each cycle (Total)
system.switch_cpus.fetch.rateDist::total     22830657                       # Number of instructions fetched each cycle (Total)
system.switch_cpus.fp_regfile_writes               56                       # number of floating regfile writes
system.switch_cpus.idleCycles                     134                       # Total number of cycles that the CPU has spent unscheduled due to idling
system.switch_cpus.iew.Average_branch_resolution_cycles            0                       # sirf mispred wala
system.switch_cpus.iew.branchMispredicts           68                       # Number of branch mispredicts detected at execute
system.switch_cpus.iew.exec_branches          2222287                       # Number of branches executed
system.switch_cpus.iew.exec_nop                     0                       # number of nop insts executed
system.switch_cpus.iew.exec_rate             0.681366                       # Inst execution rate
system.switch_cpus.iew.exec_refs              1111174                       # number of memory reference insts executed
system.switch_cpus.iew.exec_stores                 37                       # Number of stores executed
system.switch_cpus.iew.exec_swp                     0                       # number of swp insts executed
system.switch_cpus.iew.global_million_exceeded_g            0                       # multiple with  million wala
system.switch_cpus.iew.global_million_timer_g   367.516000                       # less than million wala
system.switch_cpus.iew.iewBlockCycles        15179969                       # Number of cycles IEW is blocking
system.switch_cpus.iew.iewDispLoadInsts       1111220                       # Number of dispatched load instructions
system.switch_cpus.iew.iewDispNonSpecInsts            0                       # Number of dispatched non-speculative instructions
system.switch_cpus.iew.iewDispSquashedInsts            0                       # Number of squashed instructions skipped by dispatch
system.switch_cpus.iew.iewDispStoreInsts           57                       # Number of dispatched store instructions
system.switch_cpus.iew.iewDispatchedInsts     15556510                       # Number of instructions dispatched to IQ
system.switch_cpus.iew.iewExecLoadInsts       1111137                       # Number of load instructions executed
system.switch_cpus.iew.iewExecSquashedInsts           38                       # Number of squashed instructions skipped in execute
system.switch_cpus.iew.iewExecutedInsts      15556121                       # Number of executed instructions
system.switch_cpus.iew.iewIQFullEvents         227064                       # Number of times the IQ has become full, causing a stall
system.switch_cpus.iew.iewIdleCycles                0                       # Number of cycles IEW is idle
system.switch_cpus.iew.iewLSQFullEvents             0                       # Number of times the LSQ has become full, causing a stall
system.switch_cpus.iew.iewSquashCycles             39                       # Number of cycles IEW is squashing
system.switch_cpus.iew.iewUnblockCycles        402591                       # Number of cycles IEW is unblocking
system.switch_cpus.iew.lsq.thread0.blockedLoads            0                       # Number of blocked loads due to partial load-store forwarding
system.switch_cpus.iew.lsq.thread0.cacheBlocked            0                       # Number of times an access to memory failed due to the cache being blocked
system.switch_cpus.iew.lsq.thread0.forwLoads            0                       # Number of loads that had data forwarded from stores
system.switch_cpus.iew.lsq.thread0.ignoredResponses            0                       # Number of memory responses ignored because the instruction is squashed
system.switch_cpus.iew.lsq.thread0.invAddrLoads            0                       # Number of loads ignored due to an invalid address
system.switch_cpus.iew.lsq.thread0.invAddrSwpfs            0                       # Number of software prefetches ignored due to an invalid address
system.switch_cpus.iew.lsq.thread0.memOrderViolation            0                       # Number of memory ordering violations
system.switch_cpus.iew.lsq.thread0.night5            0                       # Number of loads that were rescheduled
system.switch_cpus.iew.lsq.thread0.rescheduledLoads            0                       # Number of loads that were rescheduled
system.switch_cpus.iew.lsq.thread0.squashedLoads          101                       # Number of loads squashed
system.switch_cpus.iew.lsq.thread0.squashedStores           57                       # Number of stores squashed
system.switch_cpus.iew.memOrderViolationEvents            0                       # Number of memory order violations
system.switch_cpus.iew.predictedNotTakenIncorrect           68                       # Number of branches that were predicted not taken incorrectly
system.switch_cpus.iew.predictedTakenIncorrect            0                       # Number of branches that were predicted taken incorrectly
system.switch_cpus.iew.td                           0                       # Number of td executed instructions
system.switch_cpus.iew.wb_consumers          15152516                       # num instructions consuming a value
system.switch_cpus.iew.wb_count              15556104                       # cumulative count of insts written-back
system.switch_cpus.iew.wb_fanout             0.715762                       # average fanout of values written-back
system.switch_cpus.iew.wb_producers          10845591                       # num instructions producing a value
system.switch_cpus.iew.wb_rate               0.681365                       # insts written-back per cycle
system.switch_cpus.iew.wb_sent               15556106                       # cumulative count of insts sent to commit
system.switch_cpus.int_regfile_reads         22222965                       # number of integer regfile reads
system.switch_cpus.int_regfile_writes        13333820                       # number of integer regfile writes
system.switch_cpus.ipc                       0.438005                       # IPC: Instructions Per Cycle
system.switch_cpus.ipc_total                 0.438005                       # IPC: Total IPC of All Threads
system.switch_cpus.iq.FU_type_0::No_OpClass            0      0.00%      0.00% # Type of FU issued
system.switch_cpus.iq.FU_type_0::IntAlu      14444975     92.86%     92.86% # Type of FU issued
system.switch_cpus.iq.FU_type_0::IntMult            0      0.00%     92.86% # Type of FU issued
system.switch_cpus.iq.FU_type_0::IntDiv             0      0.00%     92.86% # Type of FU issued
system.switch_cpus.iq.FU_type_0::FloatAdd            0      0.00%     92.86% # Type of FU issued
system.switch_cpus.iq.FU_type_0::FloatCmp            0      0.00%     92.86% # Type of FU issued
system.switch_cpus.iq.FU_type_0::FloatCvt            0      0.00%     92.86% # Type of FU issued
system.switch_cpus.iq.FU_type_0::FloatMult            0      0.00%     92.86% # Type of FU issued
system.switch_cpus.iq.FU_type_0::FloatMultAcc            0      0.00%     92.86% # Type of FU issued
system.switch_cpus.iq.FU_type_0::FloatDiv            0      0.00%     92.86% # Type of FU issued
system.switch_cpus.iq.FU_type_0::FloatMisc            0      0.00%     92.86% # Type of FU issued
system.switch_cpus.iq.FU_type_0::FloatSqrt            0      0.00%     92.86% # Type of FU issued
system.switch_cpus.iq.FU_type_0::SimdAdd            0      0.00%     92.86% # Type of FU issued
system.switch_cpus.iq.FU_type_0::SimdAddAcc            0      0.00%     92.86% # Type of FU issued
system.switch_cpus.iq.FU_type_0::SimdAlu            0      0.00%     92.86% # Type of FU issued
system.switch_cpus.iq.FU_type_0::SimdCmp            0      0.00%     92.86% # Type of FU issued
system.switch_cpus.iq.FU_type_0::SimdCvt            0      0.00%     92.86% # Type of FU issued
system.switch_cpus.iq.FU_type_0::SimdMisc            0      0.00%     92.86% # Type of FU issued
system.switch_cpus.iq.FU_type_0::SimdMult            0      0.00%     92.86% # Type of FU issued
system.switch_cpus.iq.FU_type_0::SimdMultAcc            0      0.00%     92.86% # Type of FU issued
system.switch_cpus.iq.FU_type_0::SimdShift            0      0.00%     92.86% # Type of FU issued
system.switch_cpus.iq.FU_type_0::SimdShiftAcc            0      0.00%     92.86% # Type of FU issued
system.switch_cpus.iq.FU_type_0::SimdDiv            0      0.00%     92.86% # Type of FU issued
system.switch_cpus.iq.FU_type_0::SimdSqrt            0      0.00%     92.86% # Type of FU issued
system.switch_cpus.iq.FU_type_0::SimdFloatAdd            0      0.00%     92.86% # Type of FU issued
system.switch_cpus.iq.FU_type_0::SimdFloatAlu            0      0.00%     92.86% # Type of FU issued
system.switch_cpus.iq.FU_type_0::SimdFloatCmp            0      0.00%     92.86% # Type of FU issued
system.switch_cpus.iq.FU_type_0::SimdFloatCvt            0      0.00%     92.86% # Type of FU issued
system.switch_cpus.iq.FU_type_0::SimdFloatDiv            0      0.00%     92.86% # Type of FU issued
system.switch_cpus.iq.FU_type_0::SimdFloatMisc            0      0.00%     92.86% # Type of FU issued
system.switch_cpus.iq.FU_type_0::SimdFloatMult            0      0.00%     92.86% # Type of FU issued
system.switch_cpus.iq.FU_type_0::SimdFloatMultAcc            0      0.00%     92.86% # Type of FU issued
system.switch_cpus.iq.FU_type_0::SimdFloatSqrt            0      0.00%     92.86% # Type of FU issued
system.switch_cpus.iq.FU_type_0::SimdReduceAdd            0      0.00%     92.86% # Type of FU issued
system.switch_cpus.iq.FU_type_0::SimdReduceAlu            0      0.00%     92.86% # Type of FU issued
system.switch_cpus.iq.FU_type_0::SimdReduceCmp            0      0.00%     92.86% # Type of FU issued
system.switch_cpus.iq.FU_type_0::SimdFloatReduceAdd            0      0.00%     92.86% # Type of FU issued
system.switch_cpus.iq.FU_type_0::SimdFloatReduceCmp            0      0.00%     92.86% # Type of FU issued
system.switch_cpus.iq.FU_type_0::SimdAes            0      0.00%     92.86% # Type of FU issued
system.switch_cpus.iq.FU_type_0::SimdAesMix            0      0.00%     92.86% # Type of FU issued
system.switch_cpus.iq.FU_type_0::SimdSha1Hash            0      0.00%     92.86% # Type of FU issued
system.switch_cpus.iq.FU_type_0::SimdSha1Hash2            0      0.00%     92.86% # Type of FU issued
system.switch_cpus.iq.FU_type_0::SimdSha256Hash            0      0.00%     92.86% # Type of FU issued
system.switch_cpus.iq.FU_type_0::SimdSha256Hash2            0      0.00%     92.86% # Type of FU issued
system.switch_cpus.iq.FU_type_0::SimdShaSigma2            0      0.00%     92.86% # Type of FU issued
system.switch_cpus.iq.FU_type_0::SimdShaSigma3            0      0.00%     92.86% # Type of FU issued
system.switch_cpus.iq.FU_type_0::SimdPredAlu            0      0.00%     92.86% # Type of FU issued
system.switch_cpus.iq.FU_type_0::MemRead      1111146      7.14%    100.00% # Type of FU issued
system.switch_cpus.iq.FU_type_0::MemWrite           39      0.00%    100.00% # Type of FU issued
system.switch_cpus.iq.FU_type_0::FloatMemRead            0      0.00%    100.00% # Type of FU issued
system.switch_cpus.iq.FU_type_0::FloatMemWrite            0      0.00%    100.00% # Type of FU issued
system.switch_cpus.iq.FU_type_0::IprAccess            0      0.00%    100.00% # Type of FU issued
system.switch_cpus.iq.FU_type_0::InstPrefetch            0      0.00%    100.00% # Type of FU issued
system.switch_cpus.iq.FU_type_0::total       15556160                       # Type of FU issued
system.switch_cpus.iq.fp_alu_accesses               0                       # Number of floating point alu accesses
system.switch_cpus.iq.fp_inst_queue_reads            0                       # Number of floating instruction queue reads
system.switch_cpus.iq.fp_inst_queue_wakeup_accesses            0                       # Number of floating instruction queue wakeup accesses
system.switch_cpus.iq.fp_inst_queue_writes            0                       # Number of floating instruction queue writes
system.switch_cpus.iq.fu_busy_cnt               34281                       # FU busy when requested
system.switch_cpus.iq.fu_busy_rate           0.002204                       # FU busy rate (busy events/executed inst)
system.switch_cpus.iq.fu_full::No_OpClass            0      0.00%      0.00% # attempts to use FU when none available
system.switch_cpus.iq.fu_full::IntAlu           34281    100.00%    100.00% # attempts to use FU when none available
system.switch_cpus.iq.fu_full::IntMult              0      0.00%    100.00% # attempts to use FU when none available
system.switch_cpus.iq.fu_full::IntDiv               0      0.00%    100.00% # attempts to use FU when none available
system.switch_cpus.iq.fu_full::FloatAdd             0      0.00%    100.00% # attempts to use FU when none available
system.switch_cpus.iq.fu_full::FloatCmp             0      0.00%    100.00% # attempts to use FU when none available
system.switch_cpus.iq.fu_full::FloatCvt             0      0.00%    100.00% # attempts to use FU when none available
system.switch_cpus.iq.fu_full::FloatMult            0      0.00%    100.00% # attempts to use FU when none available
system.switch_cpus.iq.fu_full::FloatMultAcc            0      0.00%    100.00% # attempts to use FU when none available
system.switch_cpus.iq.fu_full::FloatDiv             0      0.00%    100.00% # attempts to use FU when none available
system.switch_cpus.iq.fu_full::FloatMisc            0      0.00%    100.00% # attempts to use FU when none available
system.switch_cpus.iq.fu_full::FloatSqrt            0      0.00%    100.00% # attempts to use FU when none available
system.switch_cpus.iq.fu_full::SimdAdd              0      0.00%    100.00% # attempts to use FU when none available
system.switch_cpus.iq.fu_full::SimdAddAcc            0      0.00%    100.00% # attempts to use FU when none available
system.switch_cpus.iq.fu_full::SimdAlu              0      0.00%    100.00% # attempts to use FU when none available
system.switch_cpus.iq.fu_full::SimdCmp              0      0.00%    100.00% # attempts to use FU when none available
system.switch_cpus.iq.fu_full::SimdCvt              0      0.00%    100.00% # attempts to use FU when none available
system.switch_cpus.iq.fu_full::SimdMisc             0      0.00%    100.00% # attempts to use FU when none available
system.switch_cpus.iq.fu_full::SimdMult             0      0.00%    100.00% # attempts to use FU when none available
system.switch_cpus.iq.fu_full::SimdMultAcc            0      0.00%    100.00% # attempts to use FU when none available
system.switch_cpus.iq.fu_full::SimdShift            0      0.00%    100.00% # attempts to use FU when none available
system.switch_cpus.iq.fu_full::SimdShiftAcc            0      0.00%    100.00% # attempts to use FU when none available
system.switch_cpus.iq.fu_full::SimdDiv              0      0.00%    100.00% # attempts to use FU when none available
system.switch_cpus.iq.fu_full::SimdSqrt             0      0.00%    100.00% # attempts to use FU when none available
system.switch_cpus.iq.fu_full::SimdFloatAdd            0      0.00%    100.00% # attempts to use FU when none available
system.switch_cpus.iq.fu_full::SimdFloatAlu            0      0.00%    100.00% # attempts to use FU when none available
system.switch_cpus.iq.fu_full::SimdFloatCmp            0      0.00%    100.00% # attempts to use FU when none available
system.switch_cpus.iq.fu_full::SimdFloatCvt            0      0.00%    100.00% # attempts to use FU when none available
system.switch_cpus.iq.fu_full::SimdFloatDiv            0      0.00%    100.00% # attempts to use FU when none available
system.switch_cpus.iq.fu_full::SimdFloatMisc            0      0.00%    100.00% # attempts to use FU when none available
system.switch_cpus.iq.fu_full::SimdFloatMult            0      0.00%    100.00% # attempts to use FU when none available
system.switch_cpus.iq.fu_full::SimdFloatMultAcc            0      0.00%    100.00% # attempts to use FU when none available
system.switch_cpus.iq.fu_full::SimdFloatSqrt            0      0.00%    100.00% # attempts to use FU when none available
system.switch_cpus.iq.fu_full::SimdReduceAdd            0      0.00%    100.00% # attempts to use FU when none available
system.switch_cpus.iq.fu_full::SimdReduceAlu            0      0.00%    100.00% # attempts to use FU when none available
system.switch_cpus.iq.fu_full::SimdReduceCmp            0      0.00%    100.00% # attempts to use FU when none available
system.switch_cpus.iq.fu_full::SimdFloatReduceAdd            0      0.00%    100.00% # attempts to use FU when none available
system.switch_cpus.iq.fu_full::SimdFloatReduceCmp            0      0.00%    100.00% # attempts to use FU when none available
system.switch_cpus.iq.fu_full::SimdAes              0      0.00%    100.00% # attempts to use FU when none available
system.switch_cpus.iq.fu_full::SimdAesMix            0      0.00%    100.00% # attempts to use FU when none available
system.switch_cpus.iq.fu_full::SimdSha1Hash            0      0.00%    100.00% # attempts to use FU when none available
system.switch_cpus.iq.fu_full::SimdSha1Hash2            0      0.00%    100.00% # attempts to use FU when none available
system.switch_cpus.iq.fu_full::SimdSha256Hash            0      0.00%    100.00% # attempts to use FU when none available
system.switch_cpus.iq.fu_full::SimdSha256Hash2            0      0.00%    100.00% # attempts to use FU when none available
system.switch_cpus.iq.fu_full::SimdShaSigma2            0      0.00%    100.00% # attempts to use FU when none available
system.switch_cpus.iq.fu_full::SimdShaSigma3            0      0.00%    100.00% # attempts to use FU when none available
system.switch_cpus.iq.fu_full::SimdPredAlu            0      0.00%    100.00% # attempts to use FU when none available
system.switch_cpus.iq.fu_full::MemRead              0      0.00%    100.00% # attempts to use FU when none available
system.switch_cpus.iq.fu_full::MemWrite             0      0.00%    100.00% # attempts to use FU when none available
system.switch_cpus.iq.fu_full::FloatMemRead            0      0.00%    100.00% # attempts to use FU when none available
system.switch_cpus.iq.fu_full::FloatMemWrite            0      0.00%    100.00% # attempts to use FU when none available
system.switch_cpus.iq.fu_full::IprAccess            0      0.00%    100.00% # attempts to use FU when none available
system.switch_cpus.iq.fu_full::InstPrefetch            0      0.00%    100.00% # attempts to use FU when none available
system.switch_cpus.iq.int_alu_accesses       15590441                       # Number of integer alu accesses
system.switch_cpus.iq.int_inst_queue_reads     53977257                       # Number of integer instruction queue reads
system.switch_cpus.iq.int_inst_queue_wakeup_accesses     15556104                       # Number of integer instruction queue wakeup accesses
system.switch_cpus.iq.int_inst_queue_writes     15557349                       # Number of integer instruction queue writes
system.switch_cpus.iq.iqInstsAdded           15556510                       # Number of instructions added to the IQ (excludes non-spec)
system.switch_cpus.iq.iqInstsIssued          15556160                       # Number of instructions issued
system.switch_cpus.iq.iqSquashedInstsExamined          839                       # Number of squashed instructions iterated over during squash; mainly for profiling
system.switch_cpus.iq.iqSquashedOperandsExamined          976                       # Number of squashed operands that are examined and possibly removed from graph
system.switch_cpus.iq.issued_per_cycle::samples     22830657                       # Number of insts issued each cycle
system.switch_cpus.iq.issued_per_cycle::mean     0.681372                       # Number of insts issued each cycle
system.switch_cpus.iq.issued_per_cycle::stdev     1.447282                       # Number of insts issued each cycle
system.switch_cpus.iq.issued_per_cycle::underflows            0      0.00%      0.00% # Number of insts issued each cycle
system.switch_cpus.iq.issued_per_cycle::0     17486730     76.59%     76.59% # Number of insts issued each cycle
system.switch_cpus.iq.issued_per_cycle::1      1305999      5.72%     82.31% # Number of insts issued each cycle
system.switch_cpus.iq.issued_per_cycle::2      1240884      5.44%     87.75% # Number of insts issued each cycle
system.switch_cpus.iq.issued_per_cycle::3       869039      3.81%     91.56% # Number of insts issued each cycle
system.switch_cpus.iq.issued_per_cycle::4       698201      3.06%     94.61% # Number of insts issued each cycle
system.switch_cpus.iq.issued_per_cycle::5      1010365      4.43%     99.04% # Number of insts issued each cycle
system.switch_cpus.iq.issued_per_cycle::6       219426      0.96%    100.00% # Number of insts issued each cycle
system.switch_cpus.iq.issued_per_cycle::7           13      0.00%    100.00% # Number of insts issued each cycle
system.switch_cpus.iq.issued_per_cycle::8            0      0.00%    100.00% # Number of insts issued each cycle
system.switch_cpus.iq.issued_per_cycle::overflows            0      0.00%    100.00% # Number of insts issued each cycle
system.switch_cpus.iq.issued_per_cycle::min_value            0                       # Number of insts issued each cycle
system.switch_cpus.iq.issued_per_cycle::max_value            7                       # Number of insts issued each cycle
system.switch_cpus.iq.issued_per_cycle::total     22830657                       # Number of insts issued each cycle
system.switch_cpus.iq.rate                   0.681368                       # Inst issue rate
system.switch_cpus.iq.vec_alu_accesses              0                       # Number of vector alu accesses
system.switch_cpus.iq.vec_inst_queue_reads            0                       # Number of vector instruction queue reads
system.switch_cpus.iq.vec_inst_queue_wakeup_accesses            0                       # Number of vector instruction queue wakeup accesses
system.switch_cpus.iq.vec_inst_queue_writes            0                       # Number of vector instruction queue writes
system.switch_cpus.itb.rdAccesses                   0                       # TLB accesses on read requests
system.switch_cpus.itb.rdMisses                     0                       # TLB misses on read requests
system.switch_cpus.itb.wrAccesses                 103                       # TLB accesses on write requests
system.switch_cpus.itb.wrMisses                     5                       # TLB misses on write requests
system.switch_cpus.memDep0.conflictingLoads            0                       # Number of conflicting loads.
system.switch_cpus.memDep0.conflictingStores            0                       # Number of conflicting stores.
system.switch_cpus.memDep0.insertedLoads      1111220                       # Number of loads inserted to the mem dependence unit.
system.switch_cpus.memDep0.insertedStores           57                       # Number of stores inserted to the mem dependence unit.
system.switch_cpus.misc_regfile_reads         5555773                       # number of misc regfile reads
system.switch_cpus.misc_regfile_writes              1                       # number of misc regfile writes
system.switch_cpus.numCycles                 22830791                       # number of cpu cycles simulated
system.switch_cpus.numWorkItemsCompleted            0                       # number of work items this cpu completed
system.switch_cpus.numWorkItemsStarted              0                       # number of work items this cpu started
system.switch_cpus.rename.BlockCycles        17791596                       # Number of cycles rename is blocking
system.switch_cpus.rename.CommittedMaps      22222215                       # Number of HB maps that are committed
system.switch_cpus.rename.IQFullEvents        2699203                       # Number of times rename has blocked due to IQ full
system.switch_cpus.rename.IdleCycles           905294                       # Number of cycles rename is idle
system.switch_cpus.rename.RenameLookups      40002696                       # Number of register rename lookups that rename has made
system.switch_cpus.rename.RenamedInsts       15556684                       # Number of instructions processed by rename
system.switch_cpus.rename.RenamedOperands     22223581                       # Number of destination operands rename has renamed
system.switch_cpus.rename.RunCycles           1162916                       # Number of cycles rename is running
system.switch_cpus.rename.SquashCycles             39                       # Number of cycles rename is squashing
system.switch_cpus.rename.UnblockCycles       2970808                       # Number of cycles rename is unblocking
system.switch_cpus.rename.UndoneMaps             1173                       # Number of HB maps that are undone due to squashing
system.switch_cpus.rename.int_rename_lookups     22224057                       # Number of integer rename lookups
system.switch_cpus.rename.serializeStallCycles            0                       # count of cycles rename stalled for serializing inst
system.switch_cpus.rename.serializingInsts            0                       # count of serializing insts renamed
system.switch_cpus.rename.skidInsts           7797583                       # count of insts added to the skid buffer
system.switch_cpus.rename.tempSerializingInsts            0                       # count of temporary serializing insts renamed
system.switch_cpus.rob.rob_reads             37275803                       # The number of ROB reads
system.switch_cpus.rob.rob_writes            31113065                       # The number of ROB writes
system.switch_cpus.timesIdled                       2                       # Number of times that the entire CPU went into an idle state and unscheduled itself
system.tol2bus.snoop_filter.hit_multi_requests            0                       # Number of requests hitting in the snoop filter with multiple (>1) holders of the requested data.
system.tol2bus.snoop_filter.hit_multi_snoops            0                       # Number of snoops hitting in the snoop filter with multiple (>1) holders of the requested data.
system.tol2bus.snoop_filter.hit_single_requests       277267                       # Number of requests hitting in the snoop filter with a single holder of the requested data.
system.tol2bus.snoop_filter.hit_single_snoops            2                       # Number of snoops hitting in the snoop filter with a single holder of the requested data.
system.tol2bus.snoop_filter.tot_requests       555050                       # Total number of requests made to the snoop filter.
system.tol2bus.snoop_filter.tot_snoops              2                       # Total number of snoops made to the snoop filter.
system.membus.pwrStateResidencyTicks::UNDEFINED 8934154066910                       # Cumulative time (in ticks) in various power states
system.membus.trans_dist::ReadResp             277782                       # Transaction distribution
system.membus.trans_dist::CleanEvict           273683                       # Transaction distribution
system.membus.trans_dist::ReadSharedReq        277783                       # Transaction distribution
system.membus.pkt_count_system.l2.mem_side::system.mem_ctrls.port       829248                       # Packet count per connected master and slave (bytes)
system.membus.pkt_count_system.l2.mem_side::total       829248                       # Packet count per connected master and slave (bytes)
system.membus.pkt_count::total                 829248                       # Packet count per connected master and slave (bytes)
system.membus.pkt_size_system.l2.mem_side::system.mem_ctrls.port     17778048                       # Cumulative packet size per connected master and slave (bytes)
system.membus.pkt_size_system.l2.mem_side::total     17778048                       # Cumulative packet size per connected master and slave (bytes)
system.membus.pkt_size::total                17778048                       # Cumulative packet size per connected master and slave (bytes)
system.membus.snoops                                0                       # Total snoops (count)
system.membus.snoopTraffic                          0                       # Total snoop traffic (bytes)
system.membus.snoop_fanout::samples            277783                       # Request fanout histogram
system.membus.snoop_fanout::mean                    0                       # Request fanout histogram
system.membus.snoop_fanout::stdev                   0                       # Request fanout histogram
system.membus.snoop_fanout::underflows              0      0.00%      0.00% # Request fanout histogram
system.membus.snoop_fanout::0                  277783    100.00%    100.00% # Request fanout histogram
system.membus.snoop_fanout::1                       0      0.00%    100.00% # Request fanout histogram
system.membus.snoop_fanout::overflows               0      0.00%    100.00% # Request fanout histogram
system.membus.snoop_fanout::min_value               0                       # Request fanout histogram
system.membus.snoop_fanout::max_value               0                       # Request fanout histogram
system.membus.snoop_fanout::total              277783                       # Request fanout histogram
system.membus.reqLayer2.occupancy           728569960                       # Layer occupancy (ticks)
system.membus.reqLayer2.utilization              11.5                       # Layer utilization (%)
system.membus.respLayer1.occupancy         1437412498                       # Layer occupancy (ticks)
system.membus.respLayer1.utilization             22.6                       # Layer utilization (%)
system.switch_cpus.pwrStateResidencyTicks::OFF   6346969910                       # Cumulative time (in ticks) in various power states
system.switch_cpus.dtb.walker.pwrStateResidencyTicks::UNDEFINED 8934154066910                       # Cumulative time (in ticks) in various power states
system.switch_cpus.itb.walker.pwrStateResidencyTicks::UNDEFINED 8934154066910                       # Cumulative time (in ticks) in various power states
system.tol2bus.pwrStateResidencyTicks::UNDEFINED 8934154066910                       # Cumulative time (in ticks) in various power states
system.tol2bus.trans_dist::ReadResp            277781                       # Transaction distribution
system.tol2bus.trans_dist::CleanEvict          550953                       # Transaction distribution
system.tol2bus.trans_dist::ReadCleanReq             2                       # Transaction distribution
system.tol2bus.trans_dist::ReadSharedReq       277781                       # Transaction distribution
system.tol2bus.pkt_count_system.cpu.icache.mem_side::system.l2.cpu_side            4                       # Packet count per connected master and slave (bytes)
system.tol2bus.pkt_count_system.cpu.dcache.mem_side::system.l2.cpu_side       832827                       # Packet count per connected master and slave (bytes)
system.tol2bus.pkt_count::total                832831                       # Packet count per connected master and slave (bytes)
system.tol2bus.pkt_size_system.cpu.icache.mem_side::system.l2.cpu_side          128                       # Cumulative packet size per connected master and slave (bytes)
system.tol2bus.pkt_size_system.cpu.dcache.mem_side::system.l2.cpu_side     17777856                       # Cumulative packet size per connected master and slave (bytes)
system.tol2bus.pkt_size::total               17777984                       # Cumulative packet size per connected master and slave (bytes)
system.tol2bus.snoops                          273686                       # Total snoops (count)
system.tol2bus.snoopTraffic                         0                       # Total snoop traffic (bytes)
system.tol2bus.snoop_fanout::samples           551469                       # Request fanout histogram
system.tol2bus.snoop_fanout::mean            0.000004                       # Request fanout histogram
system.tol2bus.snoop_fanout::stdev           0.001904                       # Request fanout histogram
system.tol2bus.snoop_fanout::underflows             0      0.00%      0.00% # Request fanout histogram
system.tol2bus.snoop_fanout::0                 551467    100.00%    100.00% # Request fanout histogram
system.tol2bus.snoop_fanout::1                      2      0.00%    100.00% # Request fanout histogram
system.tol2bus.snoop_fanout::2                      0      0.00%    100.00% # Request fanout histogram
system.tol2bus.snoop_fanout::3                      0      0.00%    100.00% # Request fanout histogram
system.tol2bus.snoop_fanout::4                      0      0.00%    100.00% # Request fanout histogram
system.tol2bus.snoop_fanout::overflows              0      0.00%    100.00% # Request fanout histogram
system.tol2bus.snoop_fanout::min_value              0                       # Request fanout histogram
system.tol2bus.snoop_fanout::max_value              1                       # Request fanout histogram
system.tol2bus.snoop_fanout::total             551469                       # Request fanout histogram
system.tol2bus.reqLayer0.occupancy          154303344                       # Layer occupancy (ticks)
system.tol2bus.reqLayer0.utilization              2.4                       # Layer utilization (%)
system.tol2bus.respLayer1.occupancy         231666852                       # Layer occupancy (ticks)
system.tol2bus.respLayer1.utilization             3.7                       # Layer utilization (%)
system.tol2bus.respLayer0.occupancy               834                       # Layer occupancy (ticks)
system.tol2bus.respLayer0.utilization             0.0                       # Layer utilization (%)
system.voltage_domain.voltage                       1                       # Voltage in Volts
system.clk_domain.clock                          1000                       # Clock period in ticks
system.l2.pwrStateResidencyTicks::UNDEFINED 8934154066910                       # Cumulative time (in ticks) in various power states
system.l2.demand_misses::.cpu.inst                  1                       # number of demand (read+write) misses
system.l2.demand_misses::.cpu.data                  1                       # number of demand (read+write) misses
system.l2.demand_misses::.switch_cpus.inst            1                       # number of demand (read+write) misses
system.l2.demand_misses::.switch_cpus.data       277780                       # number of demand (read+write) misses
system.l2.demand_misses::total                 277783                       # number of demand (read+write) misses
system.l2.overall_misses::.cpu.inst                 1                       # number of overall misses
system.l2.overall_misses::.cpu.data                 1                       # number of overall misses
system.l2.overall_misses::.switch_cpus.inst            1                       # number of overall misses
system.l2.overall_misses::.switch_cpus.data       277780                       # number of overall misses
system.l2.overall_misses::total                277783                       # number of overall misses
system.l2.demand_miss_latency::.switch_cpus.inst        72002                       # number of demand (read+write) miss cycles
system.l2.demand_miss_latency::.switch_cpus.data  17546356698                       # number of demand (read+write) miss cycles
system.l2.demand_miss_latency::total      17546428700                       # number of demand (read+write) miss cycles
system.l2.overall_miss_latency::.switch_cpus.inst        72002                       # number of overall miss cycles
system.l2.overall_miss_latency::.switch_cpus.data  17546356698                       # number of overall miss cycles
system.l2.overall_miss_latency::total     17546428700                       # number of overall miss cycles
system.l2.demand_accesses::.cpu.inst                1                       # number of demand (read+write) accesses
system.l2.demand_accesses::.cpu.data                1                       # number of demand (read+write) accesses
system.l2.demand_accesses::.switch_cpus.inst            1                       # number of demand (read+write) accesses
system.l2.demand_accesses::.switch_cpus.data       277780                       # number of demand (read+write) accesses
system.l2.demand_accesses::total               277783                       # number of demand (read+write) accesses
system.l2.overall_accesses::.cpu.inst               1                       # number of overall (read+write) accesses
system.l2.overall_accesses::.cpu.data               1                       # number of overall (read+write) accesses
system.l2.overall_accesses::.switch_cpus.inst            1                       # number of overall (read+write) accesses
system.l2.overall_accesses::.switch_cpus.data       277780                       # number of overall (read+write) accesses
system.l2.overall_accesses::total              277783                       # number of overall (read+write) accesses
system.l2.demand_miss_rate::.cpu.inst               1                       # miss rate for demand accesses
system.l2.demand_miss_rate::.cpu.data               1                       # miss rate for demand accesses
system.l2.demand_miss_rate::.switch_cpus.inst            1                       # miss rate for demand accesses
system.l2.demand_miss_rate::.switch_cpus.data            1                       # miss rate for demand accesses
system.l2.demand_miss_rate::total                   1                       # miss rate for demand accesses
system.l2.overall_miss_rate::.cpu.inst              1                       # miss rate for overall accesses
system.l2.overall_miss_rate::.cpu.data              1                       # miss rate for overall accesses
system.l2.overall_miss_rate::.switch_cpus.inst            1                       # miss rate for overall accesses
system.l2.overall_miss_rate::.switch_cpus.data            1                       # miss rate for overall accesses
system.l2.overall_miss_rate::total                  1                       # miss rate for overall accesses
system.l2.demand_avg_miss_latency::.switch_cpus.inst        72002                       # average overall miss latency
system.l2.demand_avg_miss_latency::.switch_cpus.data 63166.378782                       # average overall miss latency
system.l2.demand_avg_miss_latency::total 63165.955800                       # average overall miss latency
system.l2.overall_avg_miss_latency::.switch_cpus.inst        72002                       # average overall miss latency
system.l2.overall_avg_miss_latency::.switch_cpus.data 63166.378782                       # average overall miss latency
system.l2.overall_avg_miss_latency::total 63165.955800                       # average overall miss latency
system.l2.blocked_cycles::no_mshrs                  0                       # number of cycles access was blocked
system.l2.blocked_cycles::no_targets                0                       # number of cycles access was blocked
system.l2.blocked::no_mshrs                         0                       # number of cycles access was blocked
system.l2.blocked::no_targets                       0                       # number of cycles access was blocked
system.l2.avg_blocked_cycles::no_mshrs            nan                       # average number of cycles each access was blocked
system.l2.avg_blocked_cycles::no_targets          nan                       # average number of cycles each access was blocked
system.l2.demand_mshr_misses::.switch_cpus.inst            1                       # number of demand (read+write) MSHR misses
system.l2.demand_mshr_misses::.switch_cpus.data       277780                       # number of demand (read+write) MSHR misses
system.l2.demand_mshr_misses::total            277781                       # number of demand (read+write) MSHR misses
system.l2.overall_mshr_misses::.switch_cpus.inst            1                       # number of overall MSHR misses
system.l2.overall_mshr_misses::.switch_cpus.data       277780                       # number of overall MSHR misses
system.l2.overall_mshr_misses::total           277781                       # number of overall MSHR misses
system.l2.demand_mshr_miss_latency::.switch_cpus.inst        66180                       # number of demand (read+write) MSHR miss cycles
system.l2.demand_mshr_miss_latency::.switch_cpus.data  15961111994                       # number of demand (read+write) MSHR miss cycles
system.l2.demand_mshr_miss_latency::total  15961178174                       # number of demand (read+write) MSHR miss cycles
system.l2.overall_mshr_miss_latency::.switch_cpus.inst        66180                       # number of overall MSHR miss cycles
system.l2.overall_mshr_miss_latency::.switch_cpus.data  15961111994                       # number of overall MSHR miss cycles
system.l2.overall_mshr_miss_latency::total  15961178174                       # number of overall MSHR miss cycles
system.l2.demand_mshr_miss_rate::.switch_cpus.inst            1                       # mshr miss rate for demand accesses
system.l2.demand_mshr_miss_rate::.switch_cpus.data            1                       # mshr miss rate for demand accesses
system.l2.demand_mshr_miss_rate::total       0.999993                       # mshr miss rate for demand accesses
system.l2.overall_mshr_miss_rate::.switch_cpus.inst            1                       # mshr miss rate for overall accesses
system.l2.overall_mshr_miss_rate::.switch_cpus.data            1                       # mshr miss rate for overall accesses
system.l2.overall_mshr_miss_rate::total      0.999993                       # mshr miss rate for overall accesses
system.l2.demand_avg_mshr_miss_latency::.switch_cpus.inst        66180                       # average overall mshr miss latency
system.l2.demand_avg_mshr_miss_latency::.switch_cpus.data 57459.543502                       # average overall mshr miss latency
system.l2.demand_avg_mshr_miss_latency::total 57459.574895                       # average overall mshr miss latency
system.l2.overall_avg_mshr_miss_latency::.switch_cpus.inst        66180                       # average overall mshr miss latency
system.l2.overall_avg_mshr_miss_latency::.switch_cpus.data 57459.543502                       # average overall mshr miss latency
system.l2.overall_avg_mshr_miss_latency::total 57459.574895                       # average overall mshr miss latency
system.l2.replacements                         273686                       # number of replacements
system.l2.csize                                     0                       # Cache sizes in total
system.l2.ReadCleanReq_misses::.cpu.inst            1                       # number of ReadCleanReq misses
system.l2.ReadCleanReq_misses::.switch_cpus.inst            1                       # number of ReadCleanReq misses
system.l2.ReadCleanReq_misses::total                2                       # number of ReadCleanReq misses
system.l2.ReadCleanReq_miss_latency::.switch_cpus.inst        72002                       # number of ReadCleanReq miss cycles
system.l2.ReadCleanReq_miss_latency::total        72002                       # number of ReadCleanReq miss cycles
system.l2.ReadCleanReq_accesses::.cpu.inst            1                       # number of ReadCleanReq accesses(hits+misses)
system.l2.ReadCleanReq_accesses::.switch_cpus.inst            1                       # number of ReadCleanReq accesses(hits+misses)
system.l2.ReadCleanReq_accesses::total              2                       # number of ReadCleanReq accesses(hits+misses)
system.l2.ReadCleanReq_miss_rate::.cpu.inst            1                       # miss rate for ReadCleanReq accesses
system.l2.ReadCleanReq_miss_rate::.switch_cpus.inst            1                       # miss rate for ReadCleanReq accesses
system.l2.ReadCleanReq_miss_rate::total             1                       # miss rate for ReadCleanReq accesses
system.l2.ReadCleanReq_avg_miss_latency::.switch_cpus.inst        72002                       # average ReadCleanReq miss latency
system.l2.ReadCleanReq_avg_miss_latency::total        36001                       # average ReadCleanReq miss latency
system.l2.ReadCleanReq_mshr_misses::.switch_cpus.inst            1                       # number of ReadCleanReq MSHR misses
system.l2.ReadCleanReq_mshr_misses::total            1                       # number of ReadCleanReq MSHR misses
system.l2.ReadCleanReq_mshr_miss_latency::.switch_cpus.inst        66180                       # number of ReadCleanReq MSHR miss cycles
system.l2.ReadCleanReq_mshr_miss_latency::total        66180                       # number of ReadCleanReq MSHR miss cycles
system.l2.ReadCleanReq_mshr_miss_rate::.switch_cpus.inst            1                       # mshr miss rate for ReadCleanReq accesses
system.l2.ReadCleanReq_mshr_miss_rate::total     0.500000                       # mshr miss rate for ReadCleanReq accesses
system.l2.ReadCleanReq_avg_mshr_miss_latency::.switch_cpus.inst        66180                       # average ReadCleanReq mshr miss latency
system.l2.ReadCleanReq_avg_mshr_miss_latency::total        66180                       # average ReadCleanReq mshr miss latency
system.l2.ReadSharedReq_misses::.cpu.data            1                       # number of ReadSharedReq misses
system.l2.ReadSharedReq_misses::.switch_cpus.data       277780                       # number of ReadSharedReq misses
system.l2.ReadSharedReq_misses::total          277781                       # number of ReadSharedReq misses
system.l2.ReadSharedReq_miss_latency::.switch_cpus.data  17546356698                       # number of ReadSharedReq miss cycles
system.l2.ReadSharedReq_miss_latency::total  17546356698                       # number of ReadSharedReq miss cycles
system.l2.ReadSharedReq_accesses::.cpu.data            1                       # number of ReadSharedReq accesses(hits+misses)
system.l2.ReadSharedReq_accesses::.switch_cpus.data       277780                       # number of ReadSharedReq accesses(hits+misses)
system.l2.ReadSharedReq_accesses::total        277781                       # number of ReadSharedReq accesses(hits+misses)
system.l2.ReadSharedReq_miss_rate::.cpu.data            1                       # miss rate for ReadSharedReq accesses
system.l2.ReadSharedReq_miss_rate::.switch_cpus.data            1                       # miss rate for ReadSharedReq accesses
system.l2.ReadSharedReq_miss_rate::total            1                       # miss rate for ReadSharedReq accesses
system.l2.ReadSharedReq_avg_miss_latency::.switch_cpus.data 63166.378782                       # average ReadSharedReq miss latency
system.l2.ReadSharedReq_avg_miss_latency::total 63166.151385                       # average ReadSharedReq miss latency
system.l2.ReadSharedReq_mshr_misses::.switch_cpus.data       277780                       # number of ReadSharedReq MSHR misses
system.l2.ReadSharedReq_mshr_misses::total       277780                       # number of ReadSharedReq MSHR misses
system.l2.ReadSharedReq_mshr_miss_latency::.switch_cpus.data  15961111994                       # number of ReadSharedReq MSHR miss cycles
system.l2.ReadSharedReq_mshr_miss_latency::total  15961111994                       # number of ReadSharedReq MSHR miss cycles
system.l2.ReadSharedReq_mshr_miss_rate::.switch_cpus.data            1                       # mshr miss rate for ReadSharedReq accesses
system.l2.ReadSharedReq_mshr_miss_rate::total     0.999996                       # mshr miss rate for ReadSharedReq accesses
system.l2.ReadSharedReq_avg_mshr_miss_latency::.switch_cpus.data 57459.543502                       # average ReadSharedReq mshr miss latency
system.l2.ReadSharedReq_avg_mshr_miss_latency::total 57459.543502                       # average ReadSharedReq mshr miss latency
system.l2.tags.pwrStateResidencyTicks::UNDEFINED 8934154066910                       # Cumulative time (in ticks) in various power states
system.l2.tags.tagsinuse                  4065.764623                       # Cycle average of tags in use
system.l2.tags.total_refs                      555049                       # Total number of references to valid blocks.
system.l2.tags.sampled_refs                    277782                       # Sample count of references to valid blocks.
system.l2.tags.avg_refs                      1.998146                       # Average number of references to valid blocks.
system.l2.tags.warmup_cycle              8927807097282                       # Cycle when the warmup percentage was hit.
system.l2.tags.occ_blocks::.cpu.inst         0.014006                       # Average occupied blocks per requestor
system.l2.tags.occ_blocks::.cpu.data         0.014787                       # Average occupied blocks per requestor
system.l2.tags.occ_blocks::.switch_cpus.inst     0.013992                       # Average occupied blocks per requestor
system.l2.tags.occ_blocks::.switch_cpus.data  4065.721839                       # Average occupied blocks per requestor
system.l2.tags.occ_percent::.cpu.inst        0.000003                       # Average percentage of cache occupancy
system.l2.tags.occ_percent::.cpu.data        0.000004                       # Average percentage of cache occupancy
system.l2.tags.occ_percent::.switch_cpus.inst     0.000003                       # Average percentage of cache occupancy
system.l2.tags.occ_percent::.switch_cpus.data     0.992608                       # Average percentage of cache occupancy
system.l2.tags.occ_percent::total            0.992618                       # Average percentage of cache occupancy
system.l2.tags.occ_task_id_blocks::1024          4096                       # Occupied blocks per task id
system.l2.tags.age_task_id_blocks_1024::0          429                       # Occupied blocks per task id
system.l2.tags.age_task_id_blocks_1024::1         3667                       # Occupied blocks per task id
[...]
system.cpu.icache.ReadReq_mshr_misses::total            1                       # number of ReadReq MSHR misses
system.cpu.icache.ReadReq_mshr_miss_latency::.switch_cpus.inst        72836                       # number of ReadReq MSHR miss cycles
system.cpu.icache.ReadReq_mshr_miss_latency::total        72836                       # number of ReadReq MSHR miss cycles
system.cpu.icache.ReadReq_mshr_miss_rate::.switch_cpus.inst     0.010101                       # mshr miss rate for ReadReq accesses
system.cpu.icache.ReadReq_mshr_miss_rate::total     0.008130                       # mshr miss rate for ReadReq accesses
system.cpu.icache.ReadReq_avg_mshr_miss_latency::.switch_cpus.inst        72836                       # average ReadReq mshr miss latency
system.cpu.icache.ReadReq_avg_mshr_miss_latency::total        72836                       # average ReadReq mshr miss latency
system.cpu.icache.tags.pwrStateResidencyTicks::UNDEFINED 8934154066910                       # Cumulative time (in ticks) in various power states
system.cpu.icache.tags.tagsinuse             0.001421                       # Cycle average of tags in use
system.cpu.icache.tags.total_refs                 114                       # Total number of references to valid blocks.
system.cpu.icache.tags.sampled_refs                 2                       # Sample count of references to valid blocks.
system.cpu.icache.tags.avg_refs                    57                       # Average number of references to valid blocks.
system.cpu.icache.tags.warmup_cycle      8927807097282                       # Cycle when the warmup percentage was hit.
system.cpu.icache.tags.occ_blocks::.cpu.inst     0.000710                       # Average occupied blocks per requestor
system.cpu.icache.tags.occ_blocks::.switch_cpus.inst     0.000710                       # Average occupied blocks per requestor
system.cpu.icache.tags.occ_percent::.cpu.inst     0.000001                       # Average percentage of cache occupancy
system.cpu.icache.tags.occ_percent::.switch_cpus.inst     0.000001                       # Average percentage of cache occupancy
system.cpu.icache.tags.occ_percent::total     0.000003                       # Average percentage of cache occupancy
system.cpu.icache.tags.occ_task_id_blocks::1024            2                       # Occupied blocks per task id
system.cpu.icache.tags.age_task_id_blocks_1024::3            2                       # Occupied blocks per task id
system.cpu.icache.tags.occ_task_id_percent::1024     0.003906                       # Percentage of cache occupancy per task id
system.cpu.icache.tags.tag_accesses               986                       # Number of tag accesses
system.cpu.icache.tags.data_accesses              986                       # Number of data accesses
system.cpu.dtb.walker.pwrStateResidencyTicks::UNDEFINED 8934154066910                       # Cumulative time (in ticks) in various power states
system.cpu.interrupts.clk_domain.clock           4448                       # Clock period in ticks
system.cpu.itb_walker_cache.pwrStateResidencyTicks::UNDEFINED 8934154066910                       # Cumulative time (in ticks) in various power states
system.cpu.itb_walker_cache.blocked_cycles::no_mshrs            0                       # number of cycles access was blocked
system.cpu.itb_walker_cache.blocked_cycles::no_targets            0                       # number of cycles access was blocked
system.cpu.itb_walker_cache.blocked::no_mshrs            0                       # number of cycles access was blocked
system.cpu.itb_walker_cache.blocked::no_targets            0                       # number of cycles access was blocked
system.cpu.itb_walker_cache.avg_blocked_cycles::no_mshrs          nan                       # average number of cycles each access was blocked
system.cpu.itb_walker_cache.avg_blocked_cycles::no_targets          nan                       # average number of cycles each access was blocked
system.cpu.itb_walker_cache.replacements            0                       # number of replacements
system.cpu.itb_walker_cache.csize                   0                       # Cache sizes in total
system.cpu.itb_walker_cache.tags.pwrStateResidencyTicks::UNDEFINED 8934154066910                       # Cumulative time (in ticks) in various power states
system.cpu.itb_walker_cache.tags.tagsinuse            0                       # Cycle average of tags in use
system.cpu.itb_walker_cache.tags.total_refs            0                       # Total number of references to valid blocks.
system.cpu.itb_walker_cache.tags.sampled_refs            0                       # Sample count of references to valid blocks.
system.cpu.itb_walker_cache.tags.avg_refs          nan                       # Average number of references to valid blocks.
system.cpu.itb_walker_cache.tags.warmup_cycle            0                       # Cycle when the warmup percentage was hit.
system.cpu.itb_walker_cache.tags.tag_accesses            0                       # Number of tag accesses
system.cpu.itb_walker_cache.tags.data_accesses            0                       # Number of data accesses
system.cpu.itb.walker.pwrStateResidencyTicks::UNDEFINED 8934154066910                       # Cumulative time (in ticks) in various power states
system.cpu.dtb_walker_cache.pwrStateResidencyTicks::UNDEFINED 8934154066910                       # Cumulative time (in ticks) in various power states
system.cpu.dtb_walker_cache.blocked_cycles::no_mshrs            0                       # number of cycles access was blocked
system.cpu.dtb_walker_cache.blocked_cycles::no_targets            0                       # number of cycles access was blocked
system.cpu.dtb_walker_cache.blocked::no_mshrs            0                       # number of cycles access was blocked
system.cpu.dtb_walker_cache.blocked::no_targets            0                       # number of cycles access was blocked
system.cpu.dtb_walker_cache.avg_blocked_cycles::no_mshrs          nan                       # average number of cycles each access was blocked
system.cpu.dtb_walker_cache.avg_blocked_cycles::no_targets          nan                       # average number of cycles each access was blocked
system.cpu.dtb_walker_cache.replacements            0                       # number of replacements
system.cpu.dtb_walker_cache.csize                   0                       # Cache sizes in total
system.cpu.dtb_walker_cache.tags.pwrStateResidencyTicks::UNDEFINED 8934154066910                       # Cumulative time (in ticks) in various power states
system.cpu.dtb_walker_cache.tags.tagsinuse            0                       # Cycle average of tags in use
system.cpu.dtb_walker_cache.tags.total_refs            0                       # Total number of references to valid blocks.
system.cpu.dtb_walker_cache.tags.sampled_refs            0                       # Sample count of references to valid blocks.
system.cpu.dtb_walker_cache.tags.avg_refs          nan                       # Average number of references to valid blocks.
system.cpu.dtb_walker_cache.tags.warmup_cycle            0                       # Cycle when the warmup percentage was hit.
system.cpu.dtb_walker_cache.tags.tag_accesses            0                       # Number of tag accesses
system.cpu.dtb_walker_cache.tags.data_accesses            0                       # Number of data accesses
system.cpu.dcache.pwrStateResidencyTicks::UNDEFINED 8934154066910                       # Cumulative time (in ticks) in various power states
system.cpu.dcache.demand_hits::.cpu.data            2                       # number of demand (read+write) hits
system.cpu.dcache.demand_hits::.switch_cpus.data           21                       # number of demand (read+write) hits
system.cpu.dcache.demand_hits::total               23                       # number of demand (read+write) hits
system.cpu.dcache.overall_hits::.cpu.data            2                       # number of overall hits
system.cpu.dcache.overall_hits::.switch_cpus.data           21                       # number of overall hits
system.cpu.dcache.overall_hits::total              23                       # number of overall hits
system.cpu.dcache.demand_misses::.cpu.data            1                       # number of demand (read+write) misses
system.cpu.dcache.demand_misses::.switch_cpus.data      1111116                       # number of demand (read+write) misses
system.cpu.dcache.demand_misses::total        1111117                       # number of demand (read+write) misses
system.cpu.dcache.overall_misses::.cpu.data            1                       # number of overall misses
system.cpu.dcache.overall_misses::.switch_cpus.data      1111116                       # number of overall misses
system.cpu.dcache.overall_misses::total       1111117                       # number of overall misses
system.cpu.dcache.demand_miss_latency::.switch_cpus.data  59709383768                       # number of demand (read+write) miss cycles
system.cpu.dcache.demand_miss_latency::total  59709383768                       # number of demand (read+write) miss cycles
system.cpu.dcache.overall_miss_latency::.switch_cpus.data  59709383768                       # number of overall miss cycles
system.cpu.dcache.overall_miss_latency::total  59709383768                       # number of overall miss cycles
system.cpu.dcache.demand_accesses::.cpu.data            3                       # number of demand (read+write) accesses
system.cpu.dcache.demand_accesses::.switch_cpus.data      1111137                       # number of demand (read+write) accesses
system.cpu.dcache.demand_accesses::total      1111140                       # number of demand (read+write) accesses
system.cpu.dcache.overall_accesses::.cpu.data            3                       # number of overall (read+write) accesses
system.cpu.dcache.overall_accesses::.switch_cpus.data      1111137                       # number of overall (read+write) accesses
system.cpu.dcache.overall_accesses::total      1111140                       # number of overall (read+write) accesses
system.cpu.dcache.demand_miss_rate::.cpu.data     0.333333                       # miss rate for demand accesses
system.cpu.dcache.demand_miss_rate::.switch_cpus.data     0.999981                       # miss rate for demand accesses
system.cpu.dcache.demand_miss_rate::total     0.999979                       # miss rate for demand accesses
system.cpu.dcache.overall_miss_rate::.cpu.data     0.333333                       # miss rate for overall accesses
system.cpu.dcache.overall_miss_rate::.switch_cpus.data     0.999981                       # miss rate for overall accesses
system.cpu.dcache.overall_miss_rate::total     0.999979                       # miss rate for overall accesses
system.cpu.dcache.demand_avg_miss_latency::.switch_cpus.data 53738.208943                       # average overall miss latency
system.cpu.dcache.demand_avg_miss_latency::total 53738.160579                       # average overall miss latency
system.cpu.dcache.overall_avg_miss_latency::.switch_cpus.data 53738.208943                       # average overall miss latency
system.cpu.dcache.overall_avg_miss_latency::total 53738.160579                       # average overall miss latency
system.cpu.dcache.blocked_cycles::no_mshrs            0                       # number of cycles access was blocked
system.cpu.dcache.blocked_cycles::no_targets            0                       # number of cycles access was blocked
system.cpu.dcache.blocked::no_mshrs                 0                       # number of cycles access was blocked
system.cpu.dcache.blocked::no_targets               0                       # number of cycles access was blocked
system.cpu.dcache.avg_blocked_cycles::no_mshrs          nan                       # average number of cycles each access was blocked
system.cpu.dcache.avg_blocked_cycles::no_targets          nan                       # average number of cycles each access was blocked
system.cpu.dcache.demand_mshr_hits::.switch_cpus.data       833336                       # number of demand (read+write) MSHR hits
system.cpu.dcache.demand_mshr_hits::total       833336                       # number of demand (read+write) MSHR hits
system.cpu.dcache.overall_mshr_hits::.switch_cpus.data       833336                       # number of overall MSHR hits
system.cpu.dcache.overall_mshr_hits::total       833336                       # number of overall MSHR hits
system.cpu.dcache.demand_mshr_misses::.switch_cpus.data       277780                       # number of demand (read+write) MSHR misses
system.cpu.dcache.demand_mshr_misses::total       277780                       # number of demand (read+write) MSHR misses
system.cpu.dcache.overall_mshr_misses::.switch_cpus.data       277780                       # number of overall MSHR misses
system.cpu.dcache.overall_mshr_misses::total       277780                       # number of overall MSHR misses
system.cpu.dcache.demand_mshr_miss_latency::.switch_cpus.data  17777964892                       # number of demand (read+write) MSHR miss cycles
system.cpu.dcache.demand_mshr_miss_latency::total  17777964892                       # number of demand (read+write) MSHR miss cycles
system.cpu.dcache.overall_mshr_miss_latency::.switch_cpus.data  17777964892                       # number of overall MSHR miss cycles
system.cpu.dcache.overall_mshr_miss_latency::total  17777964892                       # number of overall MSHR miss cycles
system.cpu.dcache.demand_mshr_miss_rate::.switch_cpus.data     0.249996                       # mshr miss rate for demand accesses
system.cpu.dcache.demand_mshr_miss_rate::total     0.249996                       # mshr miss rate for demand accesses
system.cpu.dcache.overall_mshr_miss_rate::.switch_cpus.data     0.249996                       # mshr miss rate for overall accesses
system.cpu.dcache.overall_mshr_miss_rate::total     0.249996                       # mshr miss rate for overall accesses
system.cpu.dcache.demand_avg_mshr_miss_latency::.switch_cpus.data 64000.161610                       # average overall mshr miss latency
system.cpu.dcache.demand_avg_mshr_miss_latency::total 64000.161610                       # average overall mshr miss latency
system.cpu.dcache.overall_avg_mshr_miss_latency::.switch_cpus.data 64000.161610                       # average overall mshr miss latency
system.cpu.dcache.overall_avg_mshr_miss_latency::total 64000.161610                       # average overall mshr miss latency
system.cpu.dcache.replacements                 277267                       # number of replacements
system.cpu.dcache.csize                       8889064                       # Cache sizes in total
system.cpu.dcache.ReadReq_hits::.cpu.data            2                       # number of ReadReq hits
system.cpu.dcache.ReadReq_hits::.switch_cpus.data           21                       # number of ReadReq hits
system.cpu.dcache.ReadReq_hits::total              23                       # number of ReadReq hits
system.cpu.dcache.ReadReq_misses::.cpu.data            1                       # number of ReadReq misses
system.cpu.dcache.ReadReq_misses::.switch_cpus.data      1111116                       # number of ReadReq misses
system.cpu.dcache.ReadReq_misses::total       1111117                       # number of ReadReq misses
system.cpu.dcache.ReadReq_miss_latency::.switch_cpus.data  59709383768                       # number of ReadReq miss cycles
system.cpu.dcache.ReadReq_miss_latency::total  59709383768                       # number of ReadReq miss cycles
system.cpu.dcache.ReadReq_accesses::.cpu.data            3                       # number of ReadReq accesses(hits+misses)
system.cpu.dcache.ReadReq_accesses::.switch_cpus.data      1111137                       # number of ReadReq accesses(hits+misses)
system.cpu.dcache.ReadReq_accesses::total      1111140                       # number of ReadReq accesses(hits+misses)
system.cpu.dcache.ReadReq_miss_rate::.cpu.data     0.333333                       # miss rate for ReadReq accesses
system.cpu.dcache.ReadReq_miss_rate::.switch_cpus.data     0.999981                       # miss rate for ReadReq accesses
system.cpu.dcache.ReadReq_miss_rate::total     0.999979                       # miss rate for ReadReq accesses
system.cpu.dcache.ReadReq_avg_miss_latency::.switch_cpus.data 53738.208943                       # average ReadReq miss latency
system.cpu.dcache.ReadReq_avg_miss_latency::total 53738.160579                       # average ReadReq miss latency
system.cpu.dcache.ReadReq_mshr_hits::.switch_cpus.data       833336                       # number of ReadReq MSHR hits
system.cpu.dcache.ReadReq_mshr_hits::total       833336                       # number of ReadReq MSHR hits
system.cpu.dcache.ReadReq_mshr_misses::.switch_cpus.data       277780                       # number of ReadReq MSHR misses
system.cpu.dcache.ReadReq_mshr_misses::total       277780                       # number of ReadReq MSHR misses
system.cpu.dcache.ReadReq_mshr_miss_latency::.switch_cpus.data  17777964892                       # number of ReadReq MSHR miss cycles
system.cpu.dcache.ReadReq_mshr_miss_latency::total  17777964892                       # number of ReadReq MSHR miss cycles
system.cpu.dcache.ReadReq_mshr_miss_rate::.switch_cpus.data     0.249996                       # mshr miss rate for ReadReq accesses
system.cpu.dcache.ReadReq_mshr_miss_rate::total     0.249996                       # mshr miss rate for ReadReq accesses
system.cpu.dcache.ReadReq_avg_mshr_miss_latency::.switch_cpus.data 64000.161610                       # average ReadReq mshr miss latency
system.cpu.dcache.ReadReq_avg_mshr_miss_latency::total 64000.161610                       # average ReadReq mshr miss latency
system.cpu.dcache.tags.pwrStateResidencyTicks::UNDEFINED 8934154066910                       # Cumulative time (in ticks) in various power states
system.cpu.dcache.tags.tagsinuse             0.363391                       # Cycle average of tags in use
system.cpu.dcache.tags.total_refs              277802                       # Total number of references to valid blocks.
system.cpu.dcache.tags.sampled_refs            277779                       # Sample count of references to valid blocks.
system.cpu.dcache.tags.avg_refs              1.000083                       # Average number of references to valid blocks.
system.cpu.dcache.tags.warmup_cycle      8927807097838                       # Cycle when the warmup percentage was hit.
system.cpu.dcache.tags.occ_blocks::.cpu.data     0.000001                       # Average occupied blocks per requestor
system.cpu.dcache.tags.occ_blocks::.switch_cpus.data     0.363390                       # Average occupied blocks per requestor
system.cpu.dcache.tags.occ_percent::.cpu.data     0.000000                       # Average percentage of cache occupancy
system.cpu.dcache.tags.occ_percent::.switch_cpus.data     0.000710                       # Average percentage of cache occupancy
system.cpu.dcache.tags.occ_percent::total     0.000710                       # Average percentage of cache occupancy
system.cpu.dcache.tags.occ_task_id_blocks::1024          512                       # Occupied blocks per task id
system.cpu.dcache.tags.age_task_id_blocks_1024::0          429                       # Occupied blocks per task id
system.cpu.dcache.tags.age_task_id_blocks_1024::1           83                       # Occupied blocks per task id
system.cpu.dcache.tags.occ_task_id_percent::1024            1                       # Percentage of cache occupancy per task id
system.cpu.dcache.tags.tag_accesses           9166899                       # Number of tag accesses
system.cpu.dcache.tags.data_accesses          9166899                       # Number of data accesses

---------- End Simulation Statistics   ----------
