
---------- Begin Simulation Statistics ----------
final_tick                               11521809158152                       # Number of ticks from beginning of simulation (restored from checkpoints and never reset)
host_inst_rate                                 111956                       # Simulator instruction rate (inst/s)
host_mem_usage                               16966392                       # Number of bytes of host memory used
host_op_rate                                   196900                       # Simulator op (including micro ops) rate (op/s)
host_seconds                                    89.32                       # Real time elapsed on the host
host_tick_rate                               97856643                       # Simulator tick rate (ticks/s)
sim_freq                                 1000000000000                       # Frequency of simulated ticks
sim_insts                                    10000017                       # Number of instructions simulated
sim_ops                                      17587331                       # Number of ops (including micro ops) simulated
sim_seconds                                  0.008741                       # Number of seconds simulated
sim_ticks                                  8740662652                       # Number of ticks simulated
system.cpu.Branches                                 3                       # Number of branches fetched
system.cpu.committedInsts                          16                       # Number of instructions committed
system.cpu.committedOps                            27                       # Number of ops (including micro ops) committed
system.cpu.dtb.rdAccesses                           4                       # TLB accesses on read requests
system.cpu.dtb.rdMisses                             0                       # TLB misses on read requests
system.cpu.dtb.wrAccesses                           0                       # TLB accesses on write requests
system.cpu.dtb.wrMisses                             0                       # TLB misses on write requests
system.cpu.idle_fraction                            0                       # Percentage of idle cycles
system.cpu.itb.rdAccesses                           0                       # TLB accesses on read requests
system.cpu.itb.rdMisses                             0                       # TLB misses on read requests
system.cpu.itb.wrAccesses                          24                       # TLB accesses on write requests
system.cpu.itb.wrMisses                             0                       # TLB misses on write requests
system.cpu.not_idle_fraction                        1                       # Percentage of non-idle cycles
system.cpu.numCycles                               35                       # number of cpu cycles simulated
system.cpu.numWorkItemsCompleted                    0                       # number of work items this cpu completed
system.cpu.numWorkItemsStarted                      0                       # number of work items this cpu started
system.cpu.num_busy_cycles                         35                       # Number of busy cycles
system.cpu.num_cc_register_reads                   17                       # number of times the CC registers were read
system.cpu.num_cc_register_writes                   8                       # number of times the CC registers were written
system.cpu.num_conditional_control_insts            3                       # number of instructions that are conditional controls
system.cpu.num_fp_alu_accesses                     11                       # Number of float alu accesses
system.cpu.num_fp_insts                            11                       # number of float instructions
system.cpu.num_fp_register_reads                    6                       # number of times the floating registers were read
system.cpu.num_fp_register_writes                  10                       # number of times the floating registers were written
system.cpu.num_func_calls                           0                       # number of times a function call or return occured
system.cpu.num_idle_cycles                          0                       # Number of idle cycles
system.cpu.num_int_alu_accesses                    20                       # Number of integer alu accesses
system.cpu.num_int_insts                           20                       # number of integer instructions
system.cpu.num_int_register_reads                  42                       # number of times the integer registers were read
system.cpu.num_int_register_writes                 13                       # number of times the integer registers were written
system.cpu.num_load_insts                           4                       # Number of load instructions
system.cpu.num_mem_refs                             4                       # number of memory refs
system.cpu.num_store_insts                          0                       # Number of store instructions
system.cpu.num_vec_alu_accesses                     0                       # Number of vector alu accesses
system.cpu.num_vec_insts                            0                       # number of vector instructions
system.cpu.num_vec_register_reads                   0                       # number of times the vector registers were read
system.cpu.num_vec_register_writes                  0                       # number of times the vector registers were written
system.cpu.op_class::No_OpClass                     0      0.00%      0.00% # Class of executed instruction
system.cpu.op_class::IntAlu                        16     59.26%     59.26% # Class of executed instruction
system.cpu.op_class::IntMult                        0      0.00%     59.26% # Class of executed instruction
system.cpu.op_class::IntDiv                         0      0.00%     59.26% # Class of executed instruction
system.cpu.op_class::FloatAdd                       4     14.81%     74.07% # Class of executed instruction
system.cpu.op_class::FloatCmp                       0      0.00%     74.07% # Class of executed instruction
system.cpu.op_class::FloatCvt                       0      0.00%     74.07% # Class of executed instruction
system.cpu.op_class::FloatMult                      0      0.00%     74.07% # Class of executed instruction
system.cpu.op_class::FloatMultAcc                   0      0.00%     74.07% # Class of executed instruction
system.cpu.op_class::FloatDiv                       0      0.00%     74.07% # Class of executed instruction
system.cpu.op_class::FloatMisc                      0      0.00%     74.07% # Class of executed instruction
system.cpu.op_class::FloatSqrt                      0      0.00%     74.07% # Class of executed instruction
system.cpu.op_class::SimdAdd                        0      0.00%     74.07% # Class of executed instruction
system.cpu.op_class::SimdAddAcc                     0      0.00%     74.07% # Class of executed instruction
system.cpu.op_class::SimdAlu                        2      7.41%     81.48% # Class of executed instruction
system.cpu.op_class::SimdCmp                        0      0.00%     81.48% # Class of executed instruction
system.cpu.op_class::SimdCvt                        0      0.00%     81.48% # Class of executed instruction
system.cpu.op_class::SimdMisc                       0      0.00%     81.48% # Class of executed instruction
system.cpu.op_class::SimdMult                       0      0.00%     81.48% # Class of executed instruction
system.cpu.op_class::SimdMultAcc                    0      0.00%     81.48% # Class of executed instruction
system.cpu.op_class::SimdShift                      0      0.00%     81.48% # Class of executed instruction
system.cpu.op_class::SimdShiftAcc                   0      0.00%     81.48% # Class of executed instruction
system.cpu.op_class::SimdDiv                        0      0.00%     81.48% # Class of executed instruction
system.cpu.op_class::SimdSqrt                       0      0.00%     81.48% # Class of executed instruction
system.cpu.op_class::SimdFloatAdd                   0      0.00%     81.48% # Class of executed instruction
system.cpu.op_class::SimdFloatAlu                   0      0.00%     81.48% # Class of executed instruction
system.cpu.op_class::SimdFloatCmp                   0      0.00%     81.48% # Class of executed instruction
system.cpu.op_class::SimdFloatCvt                   1      3.70%     85.19% # Class of executed instruction
system.cpu.op_class::SimdFloatDiv                   0      0.00%     85.19% # Class of executed instruction
system.cpu.op_class::SimdFloatMisc                  0      0.00%     85.19% # Class of executed instruction
system.cpu.op_class::SimdFloatMult                  0      0.00%     85.19% # Class of executed instruction
system.cpu.op_class::SimdFloatMultAcc               0      0.00%     85.19% # Class of executed instruction
system.cpu.op_class::SimdFloatSqrt                  0      0.00%     85.19% # Class of executed instruction
system.cpu.op_class::SimdReduceAdd                  0      0.00%     85.19% # Class of executed instruction
system.cpu.op_class::SimdReduceAlu                  0      0.00%     85.19% # Class of executed instruction
system.cpu.op_class::SimdReduceCmp                  0      0.00%     85.19% # Class of executed instruction
system.cpu.op_class::SimdFloatReduceAdd             0      0.00%     85.19% # Class of executed instruction
system.cpu.op_class::SimdFloatReduceCmp             0      0.00%     85.19% # Class of executed instruction
system.cpu.op_class::SimdAes                        0      0.00%     85.19% # Class of executed instruction
system.cpu.op_class::SimdAesMix                     0      0.00%     85.19% # Class of executed instruction
system.cpu.op_class::SimdSha1Hash                   0      0.00%     85.19% # Class of executed instruction
system.cpu.op_class::SimdSha1Hash2                  0      0.00%     85.19% # Class of executed instruction
system.cpu.op_class::SimdSha256Hash                 0      0.00%     85.19% # Class of executed instruction
system.cpu.op_class::SimdSha256Hash2                0      0.00%     85.19% # Class of executed instruction
system.cpu.op_class::SimdShaSigma2                  0      0.00%     85.19% # Class of executed instruction
system.cpu.op_class::SimdShaSigma3                  0      0.00%     85.19% # Class of executed instruction
system.cpu.op_class::SimdPredAlu                    0      0.00%     85.19% # Class of executed instruction
system.cpu.op_class::MemRead                        0      0.00%     85.19% # Class of executed instruction
system.cpu.op_class::MemWrite                       0      0.00%     85.19% # Class of executed instruction
system.cpu.op_class::FloatMemRead                   4     14.81%    100.00% # Class of executed instruction
system.cpu.op_class::FloatMemWrite                  0      0.00%    100.00% # Class of executed instruction
system.cpu.op_class::IprAccess                      0      0.00%    100.00% # Class of executed instruction
system.cpu.op_class::InstPrefetch                   0      0.00%    100.00% # Class of executed instruction
system.cpu.op_class::total                         27                       # Class of executed instruction
system.cpu.workload.numSyscalls                     0                       # Number of system calls
system.membus.snoop_filter.hit_multi_requests            0                       # Number of requests hitting in the snoop filter with multiple (>1) holders of the requested data.
system.membus.snoop_filter.hit_multi_snoops            0                       # Number of snoops hitting in the snoop filter with multiple (>1) holders of the requested data.
system.membus.snoop_filter.hit_single_requests       223834                       # Number of requests hitting in the snoop filter with a single holder of the requested data.
system.membus.snoop_filter.hit_single_snoops            0                       # Number of snoops hitting in the snoop filter with a single holder of the requested data.
system.membus.snoop_filter.tot_requests        452170                       # Total number of requests made to the snoop filter.
system.membus.snoop_filter.tot_snoops               0                       # Total number of snoops made to the snoop filter.
system.switch_cpus.branchPred.BTBCorrect            0                       # Number of correct BTB predictions (this stat may not work properly.
system.switch_cpus.branchPred.BTBHitPct      0.000000                       # BTB Hit Percentage
system.switch_cpus.branchPred.BTBHits               0                       # Number of BTB hits
system.switch_cpus.branchPred.BTBLookups      1869623                       # Number of BTB lookups
system.switch_cpus.branchPred.RASInCorrect            7                       # Number of incorrect RAS predictions.
system.switch_cpus.branchPred.condIncorrect        15628                       # Number of conditional branches incorrect
system.switch_cpus.branchPred.condPredicted      2231058                       # Number of conditional branches predicted
system.switch_cpus.branchPred.indirectHits      1295569                       # Number of indirect target hits.
system.switch_cpus.branchPred.indirectLookups      1869623                       # Number of indirect predictor lookups.
system.switch_cpus.branchPred.indirectMisses       574054                       # Number of indirect misses.
system.switch_cpus.branchPred.lookups         2238635                       # Number of BP lookups
system.switch_cpus.branchPred.usedRAS            4051                       # Number of times the RAS was used to get a target.
system.switch_cpus.branchPredindirectMispredicted         2371                       # Number of mispredicted indirect branches.
system.switch_cpus.cc_regfile_reads          12251974                       # number of cc regfile reads
system.switch_cpus.cc_regfile_writes          8025720                       # number of cc regfile writes
system.switch_cpus.commit.amos                      0                       # Number of atomic instructions committed
system.switch_cpus.commit.branchMispredicts        15783                       # The number of times a branch was mispredicted
system.switch_cpus.commit.branches            2025294                       # Number of branches committed
system.switch_cpus.commit.bw_lim_events       1760752                       # number cycles where commit BW limit reached
system.switch_cpus.commit.commitSquashedInsts      1430781                       # The number of squashed insts skipped by commit
system.switch_cpus.commit.committedInsts     10000001                       # Number of instructions committed
system.switch_cpus.commit.committedOps       17587304                       # Number of ops (including micro ops) committed
system.switch_cpus.commit.committed_per_cycle::samples     31200600                       # Number of insts commited each cycle
system.switch_cpus.commit.committed_per_cycle::mean     0.563685                       # Number of insts commited each cycle
system.switch_cpus.commit.committed_per_cycle::stdev     1.919205                       # Number of insts commited each cycle
system.switch_cpus.commit.committed_per_cycle::underflows            0      0.00%      0.00% # Number of insts commited each cycle
system.switch_cpus.commit.committed_per_cycle::0     28126366     90.15%     90.15% # Number of insts commited each cycle
system.switch_cpus.commit.committed_per_cycle::1       386494      1.24%     91.39% # Number of insts commited each cycle
system.switch_cpus.commit.committed_per_cycle::2       191185      0.61%     92.00% # Number of insts commited each cycle
system.switch_cpus.commit.committed_per_cycle::3       485933      1.56%     93.56% # Number of insts commited each cycle
system.switch_cpus.commit.committed_per_cycle::4        32989      0.11%     93.66% # Number of insts commited each cycle
system.switch_cpus.commit.committed_per_cycle::5       175033      0.56%     94.22% # Number of insts commited each cycle
system.switch_cpus.commit.committed_per_cycle::6        25432      0.08%     94.30% # Number of insts commited each cycle
system.switch_cpus.commit.committed_per_cycle::7        16416      0.05%     94.36% # Number of insts commited each cycle
system.switch_cpus.commit.committed_per_cycle::8      1760752      5.64%    100.00% # Number of insts commited each cycle
system.switch_cpus.commit.committed_per_cycle::overflows            0      0.00%    100.00% # Number of insts commited each cycle
system.switch_cpus.commit.committed_per_cycle::min_value            0                       # Number of insts commited each cycle
system.switch_cpus.commit.committed_per_cycle::max_value            8                       # Number of insts commited each cycle
system.switch_cpus.commit.committed_per_cycle::total     31200600                       # Number of insts commited each cycle
system.switch_cpus.commit.fp_insts            5408088                       # Number of committed floating point instructions.
system.switch_cpus.commit.function_calls         1685                       # Number of function calls committed.
system.switch_cpus.commit.int_insts          13906109                       # Number of committed integer instructions.
system.switch_cpus.commit.loads               2020073                       # Number of loads committed
system.switch_cpus.commit.membars                   0                       # Number of memory barriers committed
system.switch_cpus.commit.mispred_commit_branch        14697                       # mein_hi_hun
system.switch_cpus.commit.op_class_0::No_OpClass           56      0.00%      0.00% # Class of committed instruction
system.switch_cpus.commit.op_class_0::IntAlu     11584728     65.87%     65.87% # Class of committed instruction
system.switch_cpus.commit.op_class_0::IntMult           22      0.00%     65.87% # Class of committed instruction
system.switch_cpus.commit.op_class_0::IntDiv            0      0.00%     65.87% # Class of committed instruction
system.switch_cpus.commit.op_class_0::FloatAdd      1317176      7.49%     73.36% # Class of committed instruction
system.switch_cpus.commit.op_class_0::FloatCmp            0      0.00%     73.36% # Class of committed instruction
system.switch_cpus.commit.op_class_0::FloatCvt            0      0.00%     73.36% # Class of committed instruction
system.switch_cpus.commit.op_class_0::FloatMult            0      0.00%     73.36% # Class of committed instruction
system.switch_cpus.commit.op_class_0::FloatMultAcc            0      0.00%     73.36% # Class of committed instruction
system.switch_cpus.commit.op_class_0::FloatDiv            0      0.00%     73.36% # Class of committed instruction
system.switch_cpus.commit.op_class_0::FloatMisc            0      0.00%     73.36% # Class of committed instruction
system.switch_cpus.commit.op_class_0::FloatSqrt            0      0.00%     73.36% # Class of committed instruction
system.switch_cpus.commit.op_class_0::SimdAdd            0      0.00%     73.36% # Class of committed instruction
system.switch_cpus.commit.op_class_0::SimdAddAcc            0      0.00%     73.36% # Class of committed instruction
system.switch_cpus.commit.op_class_0::SimdAlu      1150446      6.54%     79.90% # Class of committed instruction
system.switch_cpus.commit.op_class_0::SimdCmp            0      0.00%     79.90% # Class of committed instruction
system.switch_cpus.commit.op_class_0::SimdCvt            0      0.00%     79.90% # Class of committed instruction
system.switch_cpus.commit.op_class_0::SimdMisc           40      0.00%     79.90% # Class of committed instruction
system.switch_cpus.commit.op_class_0::SimdMult            0      0.00%     79.90% # Class of committed instruction
system.switch_cpus.commit.op_class_0::SimdMultAcc            0      0.00%     79.90% # Class of committed instruction
system.switch_cpus.commit.op_class_0::SimdShift            0      0.00%     79.90% # Class of committed instruction
system.switch_cpus.commit.op_class_0::SimdShiftAcc            0      0.00%     79.90% # Class of committed instruction
system.switch_cpus.commit.op_class_0::SimdDiv            0      0.00%     79.90% # Class of committed instruction
system.switch_cpus.commit.op_class_0::SimdSqrt            0      0.00%     79.90% # Class of committed instruction
system.switch_cpus.commit.op_class_0::SimdFloatAdd          208      0.00%     79.90% # Class of committed instruction
system.switch_cpus.commit.op_class_0::SimdFloatAlu            0      0.00%     79.90% # Class of committed instruction
system.switch_cpus.commit.op_class_0::SimdFloatCmp           10      0.00%     79.90% # Class of committed instruction
system.switch_cpus.commit.op_class_0::SimdFloatCvt       819845      4.66%     84.56% # Class of committed instruction
system.switch_cpus.commit.op_class_0::SimdFloatDiv        78338      0.45%     85.01% # Class of committed instruction
system.switch_cpus.commit.op_class_0::SimdFloatMisc            0      0.00%     85.01% # Class of committed instruction
system.switch_cpus.commit.op_class_0::SimdFloatMult       157208      0.89%     85.90% # Class of committed instruction
system.switch_cpus.commit.op_class_0::SimdFloatMultAcc            0      0.00%     85.90% # Class of committed instruction
system.switch_cpus.commit.op_class_0::SimdFloatSqrt            0      0.00%     85.90% # Class of committed instruction
system.switch_cpus.commit.op_class_0::SimdReduceAdd            0      0.00%     85.90% # Class of committed instruction
system.switch_cpus.commit.op_class_0::SimdReduceAlu            0      0.00%     85.90% # Class of committed instruction
system.switch_cpus.commit.op_class_0::SimdReduceCmp            0      0.00%     85.90% # Class of committed instruction
system.switch_cpus.commit.op_class_0::SimdFloatReduceAdd            0      0.00%     85.90% # Class of committed instruction
system.switch_cpus.commit.op_class_0::SimdFloatReduceCmp            0      0.00%     85.90% # Class of committed instruction
system.switch_cpus.commit.op_class_0::SimdAes            0      0.00%     85.90% # Class of committed instruction
system.switch_cpus.commit.op_class_0::SimdAesMix            0      0.00%     85.90% # Class of committed instruction
system.switch_cpus.commit.op_class_0::SimdSha1Hash            0      0.00%     85.90% # Class of committed instruction
system.switch_cpus.commit.op_class_0::SimdSha1Hash2            0      0.00%     85.90% # Class of committed instruction
system.switch_cpus.commit.op_class_0::SimdSha256Hash            0      0.00%     85.90% # Class of committed instruction
system.switch_cpus.commit.op_class_0::SimdSha256Hash2            0      0.00%     85.90% # Class of committed instruction
system.switch_cpus.commit.op_class_0::SimdShaSigma2            0      0.00%     85.90% # Class of committed instruction
system.switch_cpus.commit.op_class_0::SimdShaSigma3            0      0.00%     85.90% # Class of committed instruction
system.switch_cpus.commit.op_class_0::SimdPredAlu            0      0.00%     85.90% # Class of committed instruction
system.switch_cpus.commit.op_class_0::MemRead       464001      2.64%     88.54% # Class of committed instruction
system.switch_cpus.commit.op_class_0::MemWrite       288291      1.64%     90.18% # Class of committed instruction
system.switch_cpus.commit.op_class_0::FloatMemRead      1556072      8.85%     99.03% # Class of committed instruction
system.switch_cpus.commit.op_class_0::FloatMemWrite       170863      0.97%    100.00% # Class of committed instruction
system.switch_cpus.commit.op_class_0::IprAccess            0      0.00%    100.00% # Class of committed instruction
system.switch_cpus.commit.op_class_0::InstPrefetch            0      0.00%    100.00% # Class of committed instruction
system.switch_cpus.commit.op_class_0::total     17587304                       # Class of committed instruction
system.switch_cpus.commit.refs                2479227                       # Number of memory references committed
system.switch_cpus.commit.swp_count                 0                       # Number of s/w prefetches committed
system.switch_cpus.commit.vec_insts                 0                       # Number of committed Vector instructions.
system.switch_cpus.committedInsts            10000001                       # Number of Instructions Simulated
system.switch_cpus.committedOps              17587304                       # Number of Ops (including micro ops) Simulated
system.switch_cpus.cpi                       3.144119                       # CPI: Cycles Per Instruction
system.switch_cpus.cpi_total                 3.144119                       # CPI: Total CPI of All Threads
system.switch_cpus.decode.BlockedCycles      28164523                       # Number of cycles decode is blocked
system.switch_cpus.decode.DecodedInsts       19234190                       # Number of instructions handled by decode
system.switch_cpus.decode.IdleCycles           650104                       # Number of cycles decode is idle
system.switch_cpus.decode.RunCycles           1566124                       # Number of cycles decode is running
system.switch_cpus.decode.SquashCycles          15899                       # Number of cycles decode is squashing
system.switch_cpus.decode.UnblockCycles        992453                       # Number of cycles decode is unblocking
system.switch_cpus.dtb.rdAccesses             2186895                       # TLB accesses on read requests
system.switch_cpus.dtb.rdMisses                  5613                       # TLB misses on read requests
system.switch_cpus.dtb.wrAccesses              465904                       # TLB accesses on write requests
system.switch_cpus.dtb.wrMisses                  1970                       # TLB misses on write requests
system.switch_cpus.fetch.Branches             2238635                       # Number of branches that fetch encountered
system.switch_cpus.fetch.CacheLines            850597                       # Number of cache lines fetched
system.switch_cpus.fetch.Cycles              30479835                       # Number of cycles fetch has run and was not squashing or blocked
system.switch_cpus.fetch.IcacheSquashes          1771                       # Number of outstanding Icache misses that were squashed
system.switch_cpus.fetch.IcacheWaitRetryStallCycles           28                       # Number of stall cycles due to full MSHR
system.switch_cpus.fetch.Insts               11231887                       # Number of instructions fetch has processed
system.switch_cpus.fetch.MiscStallCycles          295                       # Number of cycles fetch has spent waiting on interrupts, or bad addresses, or out of MSHRs
system.switch_cpus.fetch.PendingQuiesceStallCycles          206                       # Number of stall cycles due to pending quiesce instructions
system.switch_cpus.fetch.PendingTrapStallCycles         1083                       # Number of stall cycles due to pending traps
system.switch_cpus.fetch.SquashCycles           31798                       # Number of cycles fetch has spent squashing
system.switch_cpus.fetch.branchRate          0.071201                       # Number of branch fetches per cycle
system.switch_cpus.fetch.icacheStallCycles       891759                       # Number of cycles fetch is stalled on an Icache miss
system.switch_cpus.fetch.predictedBranches      1299620                       # Number of branches that fetch has predicted taken
system.switch_cpus.fetch.rate                0.357235                       # Number of inst fetches per cycle
system.switch_cpus.fetch.rateDist::samples     31389105                       # Number of instructions fetched each cycle (Total)
system.switch_cpus.fetch.rateDist::mean      0.625433                       # Number of instructions fetched each cycle (Total)
system.switch_cpus.fetch.rateDist::stdev     2.006203                       # Number of instructions fetched each cycle (Total)
system.switch_cpus.fetch.rateDist::underflows            0      0.00%      0.00% # Number of instructions fetched each cycle (Total)
system.switch_cpus.fetch.rateDist::0         27975306     89.12%     89.12% # Number of instructions fetched each cycle (Total)
system.switch_cpus.fetch.rateDist::1           241911      0.77%     89.89% # Number of instructions fetched each cycle (Total)
system.switch_cpus.fetch.rateDist::2           584440      1.86%     91.76% # Number of instructions fetched each cycle (Total)
system.switch_cpus.fetch.rateDist::3           230030      0.73%     92.49% # Number of instructions fetched each cycle (Total)
system.switch_cpus.fetch.rateDist::4           179283      0.57%     93.06% # Number of instructions fetched each cycle (Total)
system.switch_cpus.fetch.rateDist::5           118326      0.38%     93.44% # Number of instructions fetched each cycle (Total)
system.switch_cpus.fetch.rateDist::6            77779      0.25%     93.69% # Number of instructions fetched each cycle (Total)
system.switch_cpus.fetch.rateDist::7           100788      0.32%     94.01% # Number of instructions fetched each cycle (Total)
system.switch_cpus.fetch.rateDist::8          1881242      5.99%    100.00% # Number of instructions fetched each cycle (Total)
system.switch_cpus.fetch.rateDist::overflows            0      0.00%    100.00% # Number of instructions fetched each cycle (Total)
system.switch_cpus.fetch.rateDist::min_value            0                       # Number of instructions fetched each cycle (Total)
system.switch_cpus.fetch.rateDist::max_value            8                       # Number of instructions fetched each cycle (Total)
system.switch_cpus.fetch.rateDist::total     31389105                       # Number of instructions fetched each cycle (Total)
system.switch_cpus.fp_regfile_reads           5485490                       # number of floating regfile reads
system.switch_cpus.fp_regfile_writes          4798770                       # number of floating regfile writes
system.switch_cpus.idleCycles                   52091                       # Total number of cycles that the CPU has spent unscheduled due to idling
system.switch_cpus.iew.Average_branch_resolution_cycles            0                       # sirf mispred wala
system.switch_cpus.iew.branchMispredicts        23570                       # Number of branch mispredicts detected at execute
system.switch_cpus.iew.exec_branches          2115143                       # Number of branches executed
system.switch_cpus.iew.exec_nop                     0                       # number of nop insts executed
system.switch_cpus.iew.exec_rate             0.605116                       # Inst execution rate
system.switch_cpus.iew.exec_refs              2868145                       # number of memory reference insts executed
system.switch_cpus.iew.exec_stores             465904                       # Number of stores executed
system.switch_cpus.iew.exec_swp                     0                       # number of swp insts executed
system.switch_cpus.iew.global_million_exceeded_g            0                       # multiple with  million wala
system.switch_cpus.iew.global_million_timer_g 1010793.544000                       # less than million wala
system.switch_cpus.iew.iewBlockCycles         6298299                       # Number of cycles IEW is blocking
system.switch_cpus.iew.iewDispLoadInsts       2200702                       # Number of dispatched load instructions
system.switch_cpus.iew.iewDispNonSpecInsts           14                       # Number of dispatched non-speculative instructions
system.switch_cpus.iew.iewDispSquashedInsts         1311                       # Number of squashed instructions skipped by dispatch
system.switch_cpus.iew.iewDispStoreInsts       471394                       # Number of dispatched store instructions
system.switch_cpus.iew.iewDispatchedInsts     19018171                       # Number of instructions dispatched to IQ
system.switch_cpus.iew.iewExecLoadInsts       2402241                       # Number of load instructions executed
system.switch_cpus.iew.iewExecSquashedInsts        39328                       # Number of squashed instructions skipped in execute
system.switch_cpus.iew.iewExecutedInsts      19025582                       # Number of executed instructions
system.switch_cpus.iew.iewIQFullEvents          48743                       # Number of times the IQ has become full, causing a stall
system.switch_cpus.iew.iewIdleCycles                0                       # Number of cycles IEW is idle
system.switch_cpus.iew.iewLSQFullEvents       4237125                       # Number of times the LSQ has become full, causing a stall
system.switch_cpus.iew.iewSquashCycles          15899                       # Number of cycles IEW is squashing
system.switch_cpus.iew.iewUnblockCycles       4341268                       # Number of cycles IEW is unblocking
system.switch_cpus.iew.lsq.thread0.blockedLoads            0                       # Number of blocked loads due to partial load-store forwarding
system.switch_cpus.iew.lsq.thread0.cacheBlocked        44109                       # Number of times an access to memory failed due to the cache being blocked
system.switch_cpus.iew.lsq.thread0.forwLoads        22760                       # Number of loads that had data forwarded from stores
system.switch_cpus.iew.lsq.thread0.ignoredResponses          160                       # Number of memory responses ignored because the instruction is squashed
system.switch_cpus.iew.lsq.thread0.invAddrLoads            0                       # Number of loads ignored due to an invalid address
system.switch_cpus.iew.lsq.thread0.invAddrSwpfs            0                       # Number of software prefetches ignored due to an invalid address
system.switch_cpus.iew.lsq.thread0.memOrderViolation          154                       # Number of memory ordering violations
system.switch_cpus.iew.lsq.thread0.night5           37                       # Number of loads that were rescheduled
system.switch_cpus.iew.lsq.thread0.rescheduledLoads         1178                       # Number of loads that were rescheduled
system.switch_cpus.iew.lsq.thread0.squashedLoads       180604                       # Number of loads squashed
system.switch_cpus.iew.lsq.thread0.squashedStores        12240                       # Number of stores squashed
system.switch_cpus.iew.memOrderViolationEvents          154                       # Number of memory order violations
system.switch_cpus.iew.predictedNotTakenIncorrect         9305                       # Number of branches that were predicted not taken incorrectly
system.switch_cpus.iew.predictedTakenIncorrect        14265                       # Number of branches that were predicted taken incorrectly
system.switch_cpus.iew.td                           0                       # Number of td executed instructions
system.switch_cpus.iew.wb_consumers          16052201                       # num instructions consuming a value
system.switch_cpus.iew.wb_count              18755414                       # cumulative count of insts written-back
system.switch_cpus.iew.wb_fanout             0.749513                       # average fanout of values written-back
system.switch_cpus.iew.wb_producers          12031331                       # num instructions producing a value
system.switch_cpus.iew.wb_rate               0.596524                       # insts written-back per cycle
system.switch_cpus.iew.wb_sent               18761055                       # cumulative count of insts sent to commit
system.switch_cpus.int_regfile_reads         20840033                       # number of integer regfile reads
system.switch_cpus.int_regfile_writes        10533091                       # number of integer regfile writes
system.switch_cpus.ipc                       0.318054                       # IPC: Instructions Per Cycle
system.switch_cpus.ipc_total                 0.318054                       # IPC: Total IPC of All Threads
system.switch_cpus.iq.FU_type_0::No_OpClass          968      0.01%      0.01% # Type of FU issued
system.switch_cpus.iq.FU_type_0::IntAlu      12376271     64.92%     64.92% # Type of FU issued
system.switch_cpus.iq.FU_type_0::IntMult           24      0.00%     64.92% # Type of FU issued
system.switch_cpus.iq.FU_type_0::IntDiv             0      0.00%     64.92% # Type of FU issued
system.switch_cpus.iq.FU_type_0::FloatAdd      1449949      7.61%     72.53% # Type of FU issued
system.switch_cpus.iq.FU_type_0::FloatCmp            0      0.00%     72.53% # Type of FU issued
system.switch_cpus.iq.FU_type_0::FloatCvt            0      0.00%     72.53% # Type of FU issued
system.switch_cpus.iq.FU_type_0::FloatMult            0      0.00%     72.53% # Type of FU issued
system.switch_cpus.iq.FU_type_0::FloatMultAcc            0      0.00%     72.53% # Type of FU issued
system.switch_cpus.iq.FU_type_0::FloatDiv            0      0.00%     72.53% # Type of FU issued
system.switch_cpus.iq.FU_type_0::FloatMisc            0      0.00%     72.53% # Type of FU issued
system.switch_cpus.iq.FU_type_0::FloatSqrt            0      0.00%     72.53% # Type of FU issued
system.switch_cpus.iq.FU_type_0::SimdAdd            0      0.00%     72.53% # Type of FU issued
system.switch_cpus.iq.FU_type_0::SimdAddAcc            0      0.00%     72.53% # Type of FU issued
system.switch_cpus.iq.FU_type_0::SimdAlu      1272927      6.68%     79.20% # Type of FU issued
system.switch_cpus.iq.FU_type_0::SimdCmp            0      0.00%     79.20% # Type of FU issued
system.switch_cpus.iq.FU_type_0::SimdCvt            0      0.00%     79.20% # Type of FU issued
system.switch_cpus.iq.FU_type_0::SimdMisc           80      0.00%     79.20% # Type of FU issued
system.switch_cpus.iq.FU_type_0::SimdMult            0      0.00%     79.20% # Type of FU issued
system.switch_cpus.iq.FU_type_0::SimdMultAcc            0      0.00%     79.20% # Type of FU issued
system.switch_cpus.iq.FU_type_0::SimdShift            0      0.00%     79.20% # Type of FU issued
system.switch_cpus.iq.FU_type_0::SimdShiftAcc            0      0.00%     79.20% # Type of FU issued
system.switch_cpus.iq.FU_type_0::SimdDiv            0      0.00%     79.20% # Type of FU issued
system.switch_cpus.iq.FU_type_0::SimdSqrt            0      0.00%     79.20% # Type of FU issued
system.switch_cpus.iq.FU_type_0::SimdFloatAdd          324      0.00%     79.21% # Type of FU issued
system.switch_cpus.iq.FU_type_0::SimdFloatAlu            0      0.00%     79.21% # Type of FU issued
system.switch_cpus.iq.FU_type_0::SimdFloatCmp           17      0.00%     79.21% # Type of FU issued
system.switch_cpus.iq.FU_type_0::SimdFloatCvt       847575      4.45%     83.65% # Type of FU issued
system.switch_cpus.iq.FU_type_0::SimdFloatDiv        80252      0.42%     84.07% # Type of FU issued
system.switch_cpus.iq.FU_type_0::SimdFloatMisc            0      0.00%     84.07% # Type of FU issued
system.switch_cpus.iq.FU_type_0::SimdFloatMult       159783      0.84%     84.91% # Type of FU issued
system.switch_cpus.iq.FU_type_0::SimdFloatMultAcc            0      0.00%     84.91% # Type of FU issued
system.switch_cpus.iq.FU_type_0::SimdFloatSqrt            0      0.00%     84.91% # Type of FU issued
system.switch_cpus.iq.FU_type_0::SimdReduceAdd            0      0.00%     84.91% # Type of FU issued
system.switch_cpus.iq.FU_type_0::SimdReduceAlu            0      0.00%     84.91% # Type of FU issued
system.switch_cpus.iq.FU_type_0::SimdReduceCmp            0      0.00%     84.91% # Type of FU issued
system.switch_cpus.iq.FU_type_0::SimdFloatReduceAdd            0      0.00%     84.91% # Type of FU issued
system.switch_cpus.iq.FU_type_0::SimdFloatReduceCmp            0      0.00%     84.91% # Type of FU issued
system.switch_cpus.iq.FU_type_0::SimdAes            0      0.00%     84.91% # Type of FU issued
system.switch_cpus.iq.FU_type_0::SimdAesMix            0      0.00%     84.91% # Type of FU issued
system.switch_cpus.iq.FU_type_0::SimdSha1Hash            0      0.00%     84.91% # Type of FU issued
system.switch_cpus.iq.FU_type_0::SimdSha1Hash2            0      0.00%     84.91% # Type of FU issued
system.switch_cpus.iq.FU_type_0::SimdSha256Hash            0      0.00%     84.91% # Type of FU issued
system.switch_cpus.iq.FU_type_0::SimdSha256Hash2            0      0.00%     84.91% # Type of FU issued
system.switch_cpus.iq.FU_type_0::SimdShaSigma2            0      0.00%     84.91% # Type of FU issued
system.switch_cpus.iq.FU_type_0::SimdShaSigma3            0      0.00%     84.91% # Type of FU issued
system.switch_cpus.iq.FU_type_0::SimdPredAlu            0      0.00%     84.91% # Type of FU issued
system.switch_cpus.iq.FU_type_0::MemRead       600103      3.15%     88.06% # Type of FU issued
system.switch_cpus.iq.FU_type_0::MemWrite       294872      1.55%     89.61% # Type of FU issued
system.switch_cpus.iq.FU_type_0::FloatMemRead      1809734      9.49%     99.10% # Type of FU issued
system.switch_cpus.iq.FU_type_0::FloatMemWrite       172038      0.90%    100.00% # Type of FU issued
system.switch_cpus.iq.FU_type_0::IprAccess            0      0.00%    100.00% # Type of FU issued
system.switch_cpus.iq.FU_type_0::InstPrefetch            0      0.00%    100.00% # Type of FU issued
system.switch_cpus.iq.FU_type_0::total       19064917                       # Type of FU issued
system.switch_cpus.iq.fp_alu_accesses         6087922                       # Number of floating point alu accesses
system.switch_cpus.iq.fp_inst_queue_reads     12060999                       # Number of floating instruction queue reads
system.switch_cpus.iq.fp_inst_queue_wakeup_accesses      5814487                       # Number of floating instruction queue wakeup accesses
system.switch_cpus.iq.fp_inst_queue_writes      6506107                       # Number of floating instruction queue writes
system.switch_cpus.iq.fu_busy_cnt              329614                       # FU busy when requested
system.switch_cpus.iq.fu_busy_rate           0.017289                       # FU busy rate (busy events/executed inst)
system.switch_cpus.iq.fu_full::No_OpClass            0      0.00%      0.00% # attempts to use FU when none available
system.switch_cpus.iq.fu_full::IntAlu          179476     54.45%     54.45% # attempts to use FU when none available
system.switch_cpus.iq.fu_full::IntMult              0      0.00%     54.45% # attempts to use FU when none available
system.switch_cpus.iq.fu_full::IntDiv               0      0.00%     54.45% # attempts to use FU when none available
system.switch_cpus.iq.fu_full::FloatAdd             0      0.00%     54.45% # attempts to use FU when none available
system.switch_cpus.iq.fu_full::FloatCmp             0      0.00%     54.45% # attempts to use FU when none available
system.switch_cpus.iq.fu_full::FloatCvt             0      0.00%     54.45% # attempts to use FU when none available
system.switch_cpus.iq.fu_full::FloatMult            0      0.00%     54.45% # attempts to use FU when none available
system.switch_cpus.iq.fu_full::FloatMultAcc            0      0.00%     54.45% # attempts to use FU when none available
system.switch_cpus.iq.fu_full::FloatDiv             0      0.00%     54.45% # attempts to use FU when none available
system.switch_cpus.iq.fu_full::FloatMisc            0      0.00%     54.45% # attempts to use FU when none available
system.switch_cpus.iq.fu_full::FloatSqrt            0      0.00%     54.45% # attempts to use FU when none available
system.switch_cpus.iq.fu_full::SimdAdd              0      0.00%     54.45% # attempts to use FU when none available
system.switch_cpus.iq.fu_full::SimdAddAcc            0      0.00%     54.45% # attempts to use FU when none available
system.switch_cpus.iq.fu_full::SimdAlu          14971      4.54%     58.99% # attempts to use FU when none available
system.switch_cpus.iq.fu_full::SimdCmp              0      0.00%     58.99% # attempts to use FU when none available
system.switch_cpus.iq.fu_full::SimdCvt              0      0.00%     58.99% # attempts to use FU when none available
system.switch_cpus.iq.fu_full::SimdMisc             0      0.00%     58.99% # attempts to use FU when none available
system.switch_cpus.iq.fu_full::SimdMult             0      0.00%     58.99% # attempts to use FU when none available
system.switch_cpus.iq.fu_full::SimdMultAcc            0      0.00%     58.99% # attempts to use FU when none available
system.switch_cpus.iq.fu_full::SimdShift            0      0.00%     58.99% # attempts to use FU when none available
system.switch_cpus.iq.fu_full::SimdShiftAcc            0      0.00%     58.99% # attempts to use FU when none available
system.switch_cpus.iq.fu_full::SimdDiv              0      0.00%     58.99% # attempts to use FU when none available
system.switch_cpus.iq.fu_full::SimdSqrt             0      0.00%     58.99% # attempts to use FU when none available
system.switch_cpus.iq.fu_full::SimdFloatAdd            0      0.00%     58.99% # attempts to use FU when none available
system.switch_cpus.iq.fu_full::SimdFloatAlu            0      0.00%     58.99% # attempts to use FU when none available
system.switch_cpus.iq.fu_full::SimdFloatCmp            0      0.00%     58.99% # attempts to use FU when none available
system.switch_cpus.iq.fu_full::SimdFloatCvt        67987     20.63%     79.62% # attempts to use FU when none available
system.switch_cpus.iq.fu_full::SimdFloatDiv        12985      3.94%     83.56% # attempts to use FU when none available
system.switch_cpus.iq.fu_full::SimdFloatMisc            0      0.00%     83.56% # attempts to use FU when none available
system.switch_cpus.iq.fu_full::SimdFloatMult         2710      0.82%     84.38% # attempts to use FU when none available
system.switch_cpus.iq.fu_full::SimdFloatMultAcc            0      0.00%     84.38% # attempts to use FU when none available
system.switch_cpus.iq.fu_full::SimdFloatSqrt            0      0.00%     84.38% # attempts to use FU when none available
system.switch_cpus.iq.fu_full::SimdReduceAdd            0      0.00%     84.38% # attempts to use FU when none available
system.switch_cpus.iq.fu_full::SimdReduceAlu            0      0.00%     84.38% # attempts to use FU when none available
system.switch_cpus.iq.fu_full::SimdReduceCmp            0      0.00%     84.38% # attempts to use FU when none available
system.switch_cpus.iq.fu_full::SimdFloatReduceAdd            0      0.00%     84.38% # attempts to use FU when none available
system.switch_cpus.iq.fu_full::SimdFloatReduceCmp            0      0.00%     84.38% # attempts to use FU when none available
system.switch_cpus.iq.fu_full::SimdAes              0      0.00%     84.38% # attempts to use FU when none available
system.switch_cpus.iq.fu_full::SimdAesMix            0      0.00%     84.38% # attempts to use FU when none available
system.switch_cpus.iq.fu_full::SimdSha1Hash            0      0.00%     84.38% # attempts to use FU when none available
system.switch_cpus.iq.fu_full::SimdSha1Hash2            0      0.00%     84.38% # attempts to use FU when none available
system.switch_cpus.iq.fu_full::SimdSha256Hash            0      0.00%     84.38% # attempts to use FU when none available
system.switch_cpus.iq.fu_full::SimdSha256Hash2            0      0.00%     84.38% # attempts to use FU when none available
system.switch_cpus.iq.fu_full::SimdShaSigma2            0      0.00%     84.38% # attempts to use FU when none available
system.switch_cpus.iq.fu_full::SimdShaSigma3            0      0.00%     84.38% # attempts to use FU when none available
system.switch_cpus.iq.fu_full::SimdPredAlu            0      0.00%     84.38% # attempts to use FU when none available
system.switch_cpus.iq.fu_full::MemRead          24789      7.52%     91.90% # attempts to use FU when none available
system.switch_cpus.iq.fu_full::MemWrite          7240      2.20%     94.10% # attempts to use FU when none available
system.switch_cpus.iq.fu_full::FloatMemRead        18295      5.55%     99.65% # attempts to use FU when none available
system.switch_cpus.iq.fu_full::FloatMemWrite         1161      0.35%    100.00% # attempts to use FU when none available
system.switch_cpus.iq.fu_full::IprAccess            0      0.00%    100.00% # attempts to use FU when none available
system.switch_cpus.iq.fu_full::InstPrefetch            0      0.00%    100.00% # attempts to use FU when none available
system.switch_cpus.iq.int_alu_accesses       13305641                       # Number of integer alu accesses
system.switch_cpus.iq.int_inst_queue_reads     57793623                       # Number of integer instruction queue reads
system.switch_cpus.iq.int_inst_queue_wakeup_accesses     12940927                       # Number of integer instruction queue wakeup accesses
system.switch_cpus.iq.int_inst_queue_writes     13942925                       # Number of integer instruction queue writes
system.switch_cpus.iq.iqInstsAdded           19018133                       # Number of instructions added to the IQ (excludes non-spec)
system.switch_cpus.iq.iqInstsIssued          19064917                       # Number of instructions issued
system.switch_cpus.iq.iqNonSpecInstsAdded           38                       # Number of non-speculative instructions added to the IQ
system.switch_cpus.iq.iqSquashedInstsExamined      1430720                       # Number of squashed instructions iterated over during squash; mainly for profiling
system.switch_cpus.iq.iqSquashedInstsIssued         6076                       # Number of squashed instructions issued
system.switch_cpus.iq.iqSquashedNonSpecRemoved           38                       # Number of squashed non-spec instructions that were removed
system.switch_cpus.iq.iqSquashedOperandsExamined      1001515                       # Number of squashed operands that are examined and possibly removed from graph
system.switch_cpus.iq.issued_per_cycle::samples     31389105                       # Number of insts issued each cycle
system.switch_cpus.iq.issued_per_cycle::mean     0.607374                       # Number of insts issued each cycle
system.switch_cpus.iq.issued_per_cycle::stdev     1.626201                       # Number of insts issued each cycle
system.switch_cpus.iq.issued_per_cycle::underflows            0      0.00%      0.00% # Number of insts issued each cycle
system.switch_cpus.iq.issued_per_cycle::0     25763797     82.08%     82.08% # Number of insts issued each cycle
system.switch_cpus.iq.issued_per_cycle::1      1665909      5.31%     87.39% # Number of insts issued each cycle
system.switch_cpus.iq.issued_per_cycle::2      1127002      3.59%     90.98% # Number of insts issued each cycle
system.switch_cpus.iq.issued_per_cycle::3       571274      1.82%     92.80% # Number of insts issued each cycle
system.switch_cpus.iq.issued_per_cycle::4       353822      1.13%     93.92% # Number of insts issued each cycle
system.switch_cpus.iq.issued_per_cycle::5       502492      1.60%     95.52% # Number of insts issued each cycle
system.switch_cpus.iq.issued_per_cycle::6       583961      1.86%     97.38% # Number of insts issued each cycle
system.switch_cpus.iq.issued_per_cycle::7       567116      1.81%     99.19% # Number of insts issued each cycle
system.switch_cpus.iq.issued_per_cycle::8       253732      0.81%    100.00% # Number of insts issued each cycle
system.switch_cpus.iq.issued_per_cycle::overflows            0      0.00%    100.00% # Number of insts issued each cycle
system.switch_cpus.iq.issued_per_cycle::min_value            0                       # Number of insts issued each cycle
system.switch_cpus.iq.issued_per_cycle::max_value            8                       # Number of insts issued each cycle
system.switch_cpus.iq.issued_per_cycle::total     31389105                       # Number of insts issued each cycle
system.switch_cpus.iq.rate                   0.606367                       # Inst issue rate
system.switch_cpus.iq.vec_alu_accesses              0                       # Number of vector alu accesses
system.switch_cpus.iq.vec_inst_queue_reads            0                       # Number of vector instruction queue reads
system.switch_cpus.iq.vec_inst_queue_wakeup_accesses            0                       # Number of vector instruction queue wakeup accesses
system.switch_cpus.iq.vec_inst_queue_writes            0                       # Number of vector instruction queue writes
system.switch_cpus.itb.rdAccesses                   0                       # TLB accesses on read requests
system.switch_cpus.itb.rdMisses                     0                       # TLB misses on read requests
system.switch_cpus.itb.wrAccesses              850758                       # TLB accesses on write requests
system.switch_cpus.itb.wrMisses                   198                       # TLB misses on write requests
system.switch_cpus.memDep0.conflictingLoads       142859                       # Number of conflicting loads.
system.switch_cpus.memDep0.conflictingStores       140914                       # Number of conflicting stores.
system.switch_cpus.memDep0.insertedLoads      2200702                       # Number of loads inserted to the mem dependence unit.
system.switch_cpus.memDep0.insertedStores       471394                       # Number of stores inserted to the mem dependence unit.
system.switch_cpus.misc_regfile_reads         7152596                       # number of misc regfile reads
system.switch_cpus.misc_regfile_writes              1                       # number of misc regfile writes
system.switch_cpus.numCycles                 31441196                       # number of cpu cycles simulated
system.switch_cpus.numWorkItemsCompleted            0                       # number of work items this cpu completed
system.switch_cpus.numWorkItemsStarted              0                       # number of work items this cpu started
system.switch_cpus.rename.BlockCycles        19718647                       # Number of cycles rename is blocking
system.switch_cpus.rename.CommittedMaps      21822110                       # Number of HB maps that are committed
system.switch_cpus.rename.IQFullEvents        1437850                       # Number of times rename has blocked due to IQ full
system.switch_cpus.rename.IdleCycles          1008012                       # Number of cycles rename is idle
system.switch_cpus.rename.ROBFullEvents        228130                       # Number of times rename has blocked due to ROB full
system.switch_cpus.rename.RenameLookups      46290217                       # Number of register rename lookups that rename has made
system.switch_cpus.rename.RenamedInsts       19147688                       # Number of instructions processed by rename
system.switch_cpus.rename.RenamedOperands     23770052                       # Number of destination operands rename has renamed
system.switch_cpus.rename.RunCycles           2116012                       # Number of cycles rename is running
system.switch_cpus.rename.SQFullEvents        6608199                       # Number of times rename has blocked due to SQ full
system.switch_cpus.rename.SquashCycles          15899                       # Number of cycles rename is squashing
system.switch_cpus.rename.UnblockCycles       8530533                       # Number of cycles rename is unblocking
system.switch_cpus.rename.UndoneMaps          1947746                       # Number of HB maps that are undone due to squashing
system.switch_cpus.rename.fp_rename_lookups      5725117                       # Number of floating rename lookups
system.switch_cpus.rename.int_rename_lookups     20783710                       # Number of integer rename lookups
system.switch_cpus.rename.serializeStallCycles            0                       # count of cycles rename stalled for serializing inst
system.switch_cpus.rename.serializingInsts            0                       # count of serializing insts renamed
system.switch_cpus.rename.skidInsts           5341738                       # count of insts added to the skid buffer
system.switch_cpus.rename.tempSerializingInsts            0                       # count of temporary serializing insts renamed
system.switch_cpus.rob.rob_reads             48457933                       # The number of ROB reads
system.switch_cpus.rob.rob_writes            38225102                       # The number of ROB writes
system.switch_cpus.timesIdled                     362                       # Number of times that the entire CPU went into an idle state and unscheduled itself
system.tol2bus.snoop_filter.hit_multi_requests            7                       # Number of requests hitting in the snoop filter with multiple (>1) holders of the requested data.
system.tol2bus.snoop_filter.hit_multi_snoops            0                       # Number of snoops hitting in the snoop filter with multiple (>1) holders of the requested data.
system.tol2bus.snoop_filter.hit_single_requests       279463                       # Number of requests hitting in the snoop filter with a single holder of the requested data.
system.tol2bus.snoop_filter.hit_single_snoops          490                       # Number of snoops hitting in the snoop filter with a single holder of the requested data.
system.tol2bus.snoop_filter.tot_requests       559846                       # Total number of requests made to the snoop filter.
system.tol2bus.snoop_filter.tot_snoops            490                       # Total number of snoops made to the snoop filter.
system.membus.pwrStateResidencyTicks::UNDEFINED 11521809158152                       # Cumulative time (in ticks) in various power states
system.membus.trans_dist::ReadResp             188684                       # Transaction distribution
system.membus.trans_dist::WritebackDirty        48425                       # Transaction distribution
system.membus.trans_dist::CleanEvict           175405                       # Transaction distribution
system.membus.trans_dist::ReadExReq             39654                       # Transaction distribution
system.membus.trans_dist::ReadExResp            39654                       # Transaction distribution
system.membus.trans_dist::ReadSharedReq        188686                       # Transaction distribution
system.membus.pkt_count_system.l2.mem_side::system.mem_ctrls.port       680508                       # Packet count per connected master and slave (bytes)
system.membus.pkt_count_system.l2.mem_side::total       680508                       # Packet count per connected master and slave (bytes)
system.membus.pkt_count::total                 680508                       # Packet count per connected master and slave (bytes)
system.membus.pkt_size_system.l2.mem_side::system.mem_ctrls.port     17712832                       # Cumulative packet size per connected master and slave (bytes)
system.membus.pkt_size_system.l2.mem_side::total     17712832                       # Cumulative packet size per connected master and slave (bytes)
system.membus.pkt_size::total                17712832                       # Cumulative packet size per connected master and slave (bytes)
system.membus.snoops                                0                       # Total snoops (count)
system.membus.snoopTraffic                          0                       # Total snoop traffic (bytes)
system.membus.snoop_fanout::samples            228340                       # Request fanout histogram
system.membus.snoop_fanout::mean                    0                       # Request fanout histogram
system.membus.snoop_fanout::stdev                   0                       # Request fanout histogram
system.membus.snoop_fanout::underflows              0      0.00%      0.00% # Request fanout histogram
system.membus.snoop_fanout::0                  228340    100.00%    100.00% # Request fanout histogram
system.membus.snoop_fanout::1                       0      0.00%    100.00% # Request fanout histogram
system.membus.snoop_fanout::overflows               0      0.00%    100.00% # Request fanout histogram
system.membus.snoop_fanout::min_value               0                       # Request fanout histogram
system.membus.snoop_fanout::max_value               0                       # Request fanout histogram
system.membus.snoop_fanout::total              228340                       # Request fanout histogram
system.membus.reqLayer2.occupancy           794635342                       # Layer occupancy (ticks)
system.membus.reqLayer2.utilization               9.1                       # Layer utilization (%)
system.membus.respLayer1.occupancy         1176630638                       # Layer occupancy (ticks)
system.membus.respLayer1.utilization             13.5                       # Layer utilization (%)
system.switch_cpus.pwrStateResidencyTicks::OFF   8740662652                       # Cumulative time (in ticks) in various power states
system.switch_cpus.dtb.walker.pwrStateResidencyTicks::UNDEFINED 11521809158152                       # Cumulative time (in ticks) in various power states
system.switch_cpus.itb.walker.pwrStateResidencyTicks::UNDEFINED 11521809158152                       # Cumulative time (in ticks) in various power states
system.tol2bus.pwrStateResidencyTicks::UNDEFINED 11521809158152                       # Cumulative time (in ticks) in various power states
system.tol2bus.trans_dist::ReadResp            195535                       # Transaction distribution
system.tol2bus.trans_dist::WritebackDirty       147672                       # Transaction distribution
system.tol2bus.trans_dist::WritebackClean           76                       # Transaction distribution
system.tol2bus.trans_dist::CleanEvict          356034                       # Transaction distribution
system.tol2bus.trans_dist::ReadExReq            84846                       # Transaction distribution
system.tol2bus.trans_dist::ReadExResp           84846                       # Transaction distribution
system.tol2bus.trans_dist::ReadCleanReq           482                       # Transaction distribution
system.tol2bus.trans_dist::ReadSharedReq       195055                       # Transaction distribution
system.tol2bus.pkt_count_system.cpu.icache.mem_side::system.l2.cpu_side         1040                       # Packet count per connected master and slave (bytes)
system.tol2bus.pkt_count_system.cpu.dcache.mem_side::system.l2.cpu_side       839187                       # Packet count per connected master and slave (bytes)
system.tol2bus.pkt_count::total                840227                       # Packet count per connected master and slave (bytes)
system.tol2bus.pkt_size_system.cpu.icache.mem_side::system.l2.cpu_side        35712                       # Cumulative packet size per connected master and slave (bytes)
system.tol2bus.pkt_size_system.cpu.dcache.mem_side::system.l2.cpu_side     24265344                       # Cumulative packet size per connected master and slave (bytes)
system.tol2bus.pkt_size::total               24301056                       # Cumulative packet size per connected master and slave (bytes)
system.tol2bus.snoops                          224319                       # Total snoops (count)
system.tol2bus.snoopTraffic                   3099200                       # Total snoop traffic (bytes)
system.tol2bus.snoop_fanout::samples           504702                       # Request fanout histogram
system.tol2bus.snoop_fanout::mean            0.000985                       # Request fanout histogram
system.tol2bus.snoop_fanout::stdev           0.031365                       # Request fanout histogram
system.tol2bus.snoop_fanout::underflows             0      0.00%      0.00% # Request fanout histogram
system.tol2bus.snoop_fanout::0                 504205     99.90%     99.90% # Request fanout histogram
system.tol2bus.snoop_fanout::1                    497      0.10%    100.00% # Request fanout histogram
system.tol2bus.snoop_fanout::2                      0      0.00%    100.00% # Request fanout histogram
system.tol2bus.snoop_fanout::3                      0      0.00%    100.00% # Request fanout histogram
system.tol2bus.snoop_fanout::4                      0      0.00%    100.00% # Request fanout histogram
system.tol2bus.snoop_fanout::overflows              0      0.00%    100.00% # Request fanout histogram
system.tol2bus.snoop_fanout::min_value              0                       # Request fanout histogram
system.tol2bus.snoop_fanout::max_value              1                       # Request fanout histogram
system.tol2bus.snoop_fanout::total             504702                       # Request fanout histogram
system.tol2bus.reqLayer0.occupancy          210859664                       # Layer occupancy (ticks)
system.tol2bus.reqLayer0.utilization              2.4                       # Layer utilization (%)
system.tol2bus.respLayer1.occupancy         233434098                       # Layer occupancy (ticks)
system.tol2bus.respLayer1.utilization             2.7                       # Layer utilization (%)
system.tol2bus.respLayer0.occupancy            400320                       # Layer occupancy (ticks)
system.tol2bus.respLayer0.utilization             0.0                       # Layer utilization (%)
system.voltage_domain.voltage                       1                       # Voltage in Volts
system.clk_domain.clock                          1000                       # Clock period in ticks
system.l2.pwrStateResidencyTicks::UNDEFINED 11521809158152                       # Cumulative time (in ticks) in various power states
system.l2.demand_hits::.switch_cpus.inst           30                       # number of demand (read+write) hits
system.l2.demand_hits::.switch_cpus.data        52013                       # number of demand (read+write) hits
system.l2.demand_hits::total                    52043                       # number of demand (read+write) hits
system.l2.overall_hits::.switch_cpus.inst           30                       # number of overall hits
system.l2.overall_hits::.switch_cpus.data        52013                       # number of overall hits
system.l2.overall_hits::total                   52043                       # number of overall hits
system.l2.demand_misses::.cpu.inst                  2                       # number of demand (read+write) misses
system.l2.demand_misses::.cpu.data                  2                       # number of demand (read+write) misses
system.l2.demand_misses::.switch_cpus.inst          450                       # number of demand (read+write) misses
system.l2.demand_misses::.switch_cpus.data       227886                       # number of demand (read+write) misses
system.l2.demand_misses::total                 228340                       # number of demand (read+write) misses
system.l2.overall_misses::.cpu.inst                 2                       # number of overall misses
system.l2.overall_misses::.cpu.data                 2                       # number of overall misses
system.l2.overall_misses::.switch_cpus.inst          450                       # number of overall misses
system.l2.overall_misses::.switch_cpus.data       227886                       # number of overall misses
system.l2.overall_misses::total                228340                       # number of overall misses
system.l2.demand_miss_latency::.switch_cpus.inst     36152232                       # number of demand (read+write) miss cycles
system.l2.demand_miss_latency::.switch_cpus.data  15186712992                       # number of demand (read+write) miss cycles
system.l2.demand_miss_latency::total      15222865224                       # number of demand (read+write) miss cycles
system.l2.overall_miss_latency::.switch_cpus.inst     36152232                       # number of overall miss cycles
system.l2.overall_miss_latency::.switch_cpus.data  15186712992                       # number of overall miss cycles
system.l2.overall_miss_latency::total     15222865224                       # number of overall miss cycles
system.l2.demand_accesses::.cpu.inst                2                       # number of demand (read+write) accesses
system.l2.demand_accesses::.cpu.data                2                       # number of demand (read+write) accesses
system.l2.demand_accesses::.switch_cpus.inst          480                       # number of demand (read+write) accesses
system.l2.demand_accesses::.switch_cpus.data       279899                       # number of demand (read+write) accesses
system.l2.demand_accesses::total               280383                       # number of demand (read+write) accesses
system.l2.overall_accesses::.cpu.inst               2                       # number of overall (read+write) accesses
system.l2.overall_accesses::.cpu.data               2                       # number of overall (read+write) accesses
system.l2.overall_accesses::.switch_cpus.inst          480                       # number of overall (read+write) accesses
system.l2.overall_accesses::.switch_cpus.data       279899                       # number of overall (read+write) accesses
system.l2.overall_accesses::total              280383                       # number of overall (read+write) accesses
system.l2.demand_miss_rate::.cpu.inst               1                       # miss rate for demand accesses
system.l2.demand_miss_rate::.cpu.data               1                       # miss rate for demand accesses
system.l2.demand_miss_rate::.switch_cpus.inst     0.937500                       # miss rate for demand accesses
system.l2.demand_miss_rate::.switch_cpus.data     0.814172                       # miss rate for demand accesses
system.l2.demand_miss_rate::total            0.814386                       # miss rate for demand accesses
system.l2.overall_miss_rate::.cpu.inst              1                       # miss rate for overall accesses
system.l2.overall_miss_rate::.cpu.data              1                       # miss rate for overall accesses
system.l2.overall_miss_rate::.switch_cpus.inst     0.937500                       # miss rate for overall accesses
system.l2.overall_miss_rate::.switch_cpus.data     0.814172                       # miss rate for overall accesses
system.l2.overall_miss_rate::total           0.814386                       # miss rate for overall accesses
system.l2.demand_avg_miss_latency::.switch_cpus.inst 80338.293333                       # average overall miss latency
system.l2.demand_avg_miss_latency::.switch_cpus.data 66641.711171                       # average overall miss latency
system.l2.demand_avg_miss_latency::total 66667.536235                       # average overall miss latency
system.l2.overall_avg_miss_latency::.switch_cpus.inst 80338.293333                       # average overall miss latency
system.l2.overall_avg_miss_latency::.switch_cpus.data 66641.711171                       # average overall miss latency
system.l2.overall_avg_miss_latency::total 66667.536235                       # average overall miss latency
system.l2.blocked_cycles::no_mshrs                  0                       # number of cycles access was blocked
system.l2.blocked_cycles::no_targets                0                       # number of cycles access was blocked
system.l2.blocked::no_mshrs                         0                       # number of cycles access was blocked
system.l2.blocked::no_targets                       0                       # number of cycles access was blocked
system.l2.avg_blocked_cycles::no_mshrs            nan                       # average number of cycles each access was blocked
system.l2.avg_blocked_cycles::no_targets          nan                       # average number of cycles each access was blocked
system.l2.writebacks::.writebacks               48425                       # number of writebacks
system.l2.writebacks::total                     48425                       # number of writebacks
system.l2.demand_mshr_misses::.switch_cpus.inst          450                       # number of demand (read+write) MSHR misses
system.l2.demand_mshr_misses::.switch_cpus.data       227886                       # number of demand (read+write) MSHR misses
system.l2.demand_mshr_misses::total            228336                       # number of demand (read+write) MSHR misses
system.l2.overall_mshr_misses::.switch_cpus.inst          450                       # number of overall MSHR misses
system.l2.overall_mshr_misses::.switch_cpus.data       227886                       # number of overall MSHR misses
system.l2.overall_mshr_misses::total           228336                       # number of overall MSHR misses
system.l2.demand_mshr_miss_latency::.switch_cpus.inst     33588744                       # number of demand (read+write) MSHR miss cycles
system.l2.demand_mshr_miss_latency::.switch_cpus.data  13886970128                       # number of demand (read+write) MSHR miss cycles
system.l2.demand_mshr_miss_latency::total  13920558872                       # number of demand (read+write) MSHR miss cycles
system.l2.overall_mshr_miss_latency::.switch_cpus.inst     33588744                       # number of overall MSHR miss cycles
system.l2.overall_mshr_miss_latency::.switch_cpus.data  13886970128                       # number of overall MSHR miss cycles
system.l2.overall_mshr_miss_latency::total  13920558872                       # number of overall MSHR miss cycles
system.l2.demand_mshr_miss_rate::.switch_cpus.inst     0.937500                       # mshr miss rate for demand accesses
system.l2.demand_mshr_miss_rate::.switch_cpus.data     0.814172                       # mshr miss rate for demand accesses
system.l2.demand_mshr_miss_rate::total       0.814372                       # mshr miss rate for demand accesses
system.l2.overall_mshr_miss_rate::.switch_cpus.inst     0.937500                       # mshr miss rate for overall accesses
system.l2.overall_mshr_miss_rate::.switch_cpus.data     0.814172                       # mshr miss rate for overall accesses
system.l2.overall_mshr_miss_rate::total      0.814372                       # mshr miss rate for overall accesses
system.l2.demand_avg_mshr_miss_latency::.switch_cpus.inst 74641.653333                       # average overall mshr miss latency
system.l2.demand_avg_mshr_miss_latency::.switch_cpus.data 60938.232836                       # average overall mshr miss latency
system.l2.demand_avg_mshr_miss_latency::total 60965.239261                       # average overall mshr miss latency
system.l2.overall_avg_mshr_miss_latency::.switch_cpus.inst 74641.653333                       # average overall mshr miss latency
system.l2.overall_avg_mshr_miss_latency::.switch_cpus.data 60938.232836                       # average overall mshr miss latency
system.l2.overall_avg_mshr_miss_latency::total 60965.239261                       # average overall mshr miss latency
system.l2.replacements                         224319                       # number of replacements
system.l2.csize                                     0                       # Cache sizes in total
system.l2.WritebackDirty_hits::.writebacks        99247                       # number of WritebackDirty hits
system.l2.WritebackDirty_hits::total            99247                       # number of WritebackDirty hits
system.l2.WritebackDirty_accesses::.writebacks        99247                       # number of WritebackDirty accesses(hits+misses)
system.l2.WritebackDirty_accesses::total        99247                       # number of WritebackDirty accesses(hits+misses)
system.l2.WritebackClean_hits::.writebacks           76                       # number of WritebackClean hits
system.l2.WritebackClean_hits::total               76                       # number of WritebackClean hits
system.l2.WritebackClean_accesses::.writebacks           76                       # number of WritebackClean accesses(hits+misses)
system.l2.WritebackClean_accesses::total           76                       # number of WritebackClean accesses(hits+misses)
system.l2.CleanEvict_mshr_misses::.writebacks            1                       # number of CleanEvict MSHR misses
system.l2.CleanEvict_mshr_misses::total             1                       # number of CleanEvict MSHR misses
system.l2.CleanEvict_mshr_miss_rate::.writebacks          inf                       # mshr miss rate for CleanEvict accesses
system.l2.CleanEvict_mshr_miss_rate::total          inf                       # mshr miss rate for CleanEvict accesses
system.l2.ReadExReq_hits::.switch_cpus.data        45192                       # number of ReadExReq hits
system.l2.ReadExReq_hits::total                 45192                       # number of ReadExReq hits
system.l2.ReadExReq_misses::.switch_cpus.data        39654                       # number of ReadExReq misses
system.l2.ReadExReq_misses::total               39654                       # number of ReadExReq misses
system.l2.ReadExReq_miss_latency::.switch_cpus.data   2639943044                       # number of ReadExReq miss cycles
system.l2.ReadExReq_miss_latency::total    2639943044                       # number of ReadExReq miss cycles
system.l2.ReadExReq_accesses::.switch_cpus.data        84846                       # number of ReadExReq accesses(hits+misses)
system.l2.ReadExReq_accesses::total             84846                       # number of ReadExReq accesses(hits+misses)
system.l2.ReadExReq_miss_rate::.switch_cpus.data     0.467364                       # miss rate for ReadExReq accesses
system.l2.ReadExReq_miss_rate::total         0.467364                       # miss rate for ReadExReq accesses
system.l2.ReadExReq_avg_miss_latency::.switch_cpus.data 66574.445050                       # average ReadExReq miss latency
system.l2.ReadExReq_avg_miss_latency::total 66574.445050                       # average ReadExReq miss latency
system.l2.ReadExReq_mshr_misses::.switch_cpus.data        39654                       # number of ReadExReq MSHR misses
system.l2.ReadExReq_mshr_misses::total          39654                       # number of ReadExReq MSHR misses
system.l2.ReadExReq_mshr_miss_latency::.switch_cpus.data   2413920508                       # number of ReadExReq MSHR miss cycles
system.l2.ReadExReq_mshr_miss_latency::total   2413920508                       # number of ReadExReq MSHR miss cycles
system.l2.ReadExReq_mshr_miss_rate::.switch_cpus.data     0.467364                       # mshr miss rate for ReadExReq accesses
system.l2.ReadExReq_mshr_miss_rate::total     0.467364                       # mshr miss rate for ReadExReq accesses
system.l2.ReadExReq_avg_mshr_miss_latency::.switch_cpus.data 60874.577798                       # average ReadExReq mshr miss latency
system.l2.ReadExReq_avg_mshr_miss_latency::total 60874.577798                       # average ReadExReq mshr miss latency
system.l2.ReadCleanReq_hits::.switch_cpus.inst           30                       # number of ReadCleanReq hits
system.l2.ReadCleanReq_hits::total                 30                       # number of ReadCleanReq hits
system.l2.ReadCleanReq_misses::.cpu.inst            2                       # number of ReadCleanReq misses
system.l2.ReadCleanReq_misses::.switch_cpus.inst          450                       # number of ReadCleanReq misses
system.l2.ReadCleanReq_misses::total              452                       # number of ReadCleanReq misses
system.l2.ReadCleanReq_miss_latency::.switch_cpus.inst     36152232                       # number of ReadCleanReq miss cycles
[...]
system.cpu.itb_walker_cache.pwrStateResidencyTicks::UNDEFINED 11521809158152                       # Cumulative time (in ticks) in various power states
system.cpu.itb_walker_cache.blocked_cycles::no_mshrs            0                       # number of cycles access was blocked
system.cpu.itb_walker_cache.blocked_cycles::no_targets            0                       # number of cycles access was blocked
system.cpu.itb_walker_cache.blocked::no_mshrs            0                       # number of cycles access was blocked
system.cpu.itb_walker_cache.blocked::no_targets            0                       # number of cycles access was blocked
system.cpu.itb_walker_cache.avg_blocked_cycles::no_mshrs          nan                       # average number of cycles each access was blocked
system.cpu.itb_walker_cache.avg_blocked_cycles::no_targets          nan                       # average number of cycles each access was blocked
system.cpu.itb_walker_cache.replacements            0                       # number of replacements
system.cpu.itb_walker_cache.csize                   0                       # Cache sizes in total
system.cpu.itb_walker_cache.tags.pwrStateResidencyTicks::UNDEFINED 11521809158152                       # Cumulative time (in ticks) in various power states
system.cpu.itb_walker_cache.tags.tagsinuse            0                       # Cycle average of tags in use
system.cpu.itb_walker_cache.tags.total_refs            0                       # Total number of references to valid blocks.
system.cpu.itb_walker_cache.tags.sampled_refs            0                       # Sample count of references to valid blocks.
system.cpu.itb_walker_cache.tags.avg_refs          nan                       # Average number of references to valid blocks.
system.cpu.itb_walker_cache.tags.warmup_cycle            0                       # Cycle when the warmup percentage was hit.
system.cpu.itb_walker_cache.tags.tag_accesses            0                       # Number of tag accesses
system.cpu.itb_walker_cache.tags.data_accesses            0                       # Number of data accesses
system.cpu.itb.walker.pwrStateResidencyTicks::UNDEFINED 11521809158152                       # Cumulative time (in ticks) in various power states
system.cpu.dtb_walker_cache.pwrStateResidencyTicks::UNDEFINED 11521809158152                       # Cumulative time (in ticks) in various power states
system.cpu.dtb_walker_cache.blocked_cycles::no_mshrs            0                       # number of cycles access was blocked
system.cpu.dtb_walker_cache.blocked_cycles::no_targets            0                       # number of cycles access was blocked
system.cpu.dtb_walker_cache.blocked::no_mshrs            0                       # number of cycles access was blocked
system.cpu.dtb_walker_cache.blocked::no_targets            0                       # number of cycles access was blocked
system.cpu.dtb_walker_cache.avg_blocked_cycles::no_mshrs          nan                       # average number of cycles each access was blocked
system.cpu.dtb_walker_cache.avg_blocked_cycles::no_targets          nan                       # average number of cycles each access was blocked
system.cpu.dtb_walker_cache.replacements            0                       # number of replacements
system.cpu.dtb_walker_cache.csize                   0                       # Cache sizes in total
system.cpu.dtb_walker_cache.tags.pwrStateResidencyTicks::UNDEFINED 11521809158152                       # Cumulative time (in ticks) in various power states
system.cpu.dtb_walker_cache.tags.tagsinuse            0                       # Cycle average of tags in use
system.cpu.dtb_walker_cache.tags.total_refs            0                       # Total number of references to valid blocks.
system.cpu.dtb_walker_cache.tags.sampled_refs            0                       # Sample count of references to valid blocks.
system.cpu.dtb_walker_cache.tags.avg_refs          nan                       # Average number of references to valid blocks.
system.cpu.dtb_walker_cache.tags.warmup_cycle            0                       # Cycle when the warmup percentage was hit.
system.cpu.dtb_walker_cache.tags.tag_accesses            0                       # Number of tag accesses
system.cpu.dtb_walker_cache.tags.data_accesses            0                       # Number of data accesses
system.cpu.dcache.pwrStateResidencyTicks::UNDEFINED 11521809158152                       # Cumulative time (in ticks) in various power states
system.cpu.dcache.demand_hits::.cpu.data            2                       # number of demand (read+write) hits
system.cpu.dcache.demand_hits::.switch_cpus.data      1560378                       # number of demand (read+write) hits
system.cpu.dcache.demand_hits::total          1560380                       # number of demand (read+write) hits
system.cpu.dcache.overall_hits::.cpu.data            2                       # number of overall hits
system.cpu.dcache.overall_hits::.switch_cpus.data      1560378                       # number of overall hits
system.cpu.dcache.overall_hits::total         1560380                       # number of overall hits
system.cpu.dcache.demand_misses::.cpu.data            2                       # number of demand (read+write) misses
system.cpu.dcache.demand_misses::.switch_cpus.data      1061199                       # number of demand (read+write) misses
system.cpu.dcache.demand_misses::total        1061201                       # number of demand (read+write) misses
system.cpu.dcache.overall_misses::.cpu.data            2                       # number of overall misses
system.cpu.dcache.overall_misses::.switch_cpus.data      1061199                       # number of overall misses
system.cpu.dcache.overall_misses::total       1061201                       # number of overall misses
system.cpu.dcache.demand_miss_latency::.switch_cpus.data  52924286121                       # number of demand (read+write) miss cycles
system.cpu.dcache.demand_miss_latency::total  52924286121                       # number of demand (read+write) miss cycles
system.cpu.dcache.overall_miss_latency::.switch_cpus.data  52924286121                       # number of overall miss cycles
system.cpu.dcache.overall_miss_latency::total  52924286121                       # number of overall miss cycles
system.cpu.dcache.demand_accesses::.cpu.data            4                       # number of demand (read+write) accesses
system.cpu.dcache.demand_accesses::.switch_cpus.data      2621577                       # number of demand (read+write) accesses
system.cpu.dcache.demand_accesses::total      2621581                       # number of demand (read+write) accesses
system.cpu.dcache.overall_accesses::.cpu.data            4                       # number of overall (read+write) accesses
system.cpu.dcache.overall_accesses::.switch_cpus.data      2621577                       # number of overall (read+write) accesses
system.cpu.dcache.overall_accesses::total      2621581                       # number of overall (read+write) accesses
system.cpu.dcache.demand_miss_rate::.cpu.data     0.500000                       # miss rate for demand accesses
system.cpu.dcache.demand_miss_rate::.switch_cpus.data     0.404794                       # miss rate for demand accesses
system.cpu.dcache.demand_miss_rate::total     0.404794                       # miss rate for demand accesses
system.cpu.dcache.overall_miss_rate::.cpu.data     0.500000                       # miss rate for overall accesses
system.cpu.dcache.overall_miss_rate::.switch_cpus.data     0.404794                       # miss rate for overall accesses
system.cpu.dcache.overall_miss_rate::total     0.404794                       # miss rate for overall accesses
system.cpu.dcache.demand_avg_miss_latency::.switch_cpus.data 49872.159813                       # average overall miss latency
system.cpu.dcache.demand_avg_miss_latency::total 49872.065821                       # average overall miss latency
system.cpu.dcache.overall_avg_miss_latency::.switch_cpus.data 49872.159813                       # average overall miss latency
system.cpu.dcache.overall_avg_miss_latency::total 49872.065821                       # average overall miss latency
system.cpu.dcache.blocked_cycles::no_mshrs      3732121                       # number of cycles access was blocked
system.cpu.dcache.blocked_cycles::no_targets            0                       # number of cycles access was blocked
system.cpu.dcache.blocked::no_mshrs             46655                       # number of cycles access was blocked
system.cpu.dcache.blocked::no_targets               0                       # number of cycles access was blocked
system.cpu.dcache.avg_blocked_cycles::no_mshrs    79.994020                       # average number of cycles each access was blocked
system.cpu.dcache.avg_blocked_cycles::no_targets          nan                       # average number of cycles each access was blocked
system.cpu.dcache.writebacks::.writebacks        99247                       # number of writebacks
system.cpu.dcache.writebacks::total             99247                       # number of writebacks
system.cpu.dcache.demand_mshr_hits::.switch_cpus.data       781300                       # number of demand (read+write) MSHR hits
system.cpu.dcache.demand_mshr_hits::total       781300                       # number of demand (read+write) MSHR hits
system.cpu.dcache.overall_mshr_hits::.switch_cpus.data       781300                       # number of overall MSHR hits
system.cpu.dcache.overall_mshr_hits::total       781300                       # number of overall MSHR hits
system.cpu.dcache.demand_mshr_misses::.switch_cpus.data       279899                       # number of demand (read+write) MSHR misses
system.cpu.dcache.demand_mshr_misses::total       279899                       # number of demand (read+write) MSHR misses
system.cpu.dcache.overall_mshr_misses::.switch_cpus.data       279899                       # number of overall MSHR misses
system.cpu.dcache.overall_mshr_misses::total       279899                       # number of overall MSHR misses
system.cpu.dcache.demand_mshr_miss_latency::.switch_cpus.data  15741687709                       # number of demand (read+write) MSHR miss cycles
system.cpu.dcache.demand_mshr_miss_latency::total  15741687709                       # number of demand (read+write) MSHR miss cycles
system.cpu.dcache.overall_mshr_miss_latency::.switch_cpus.data  15741687709                       # number of overall MSHR miss cycles
system.cpu.dcache.overall_mshr_miss_latency::total  15741687709                       # number of overall MSHR miss cycles
system.cpu.dcache.demand_mshr_miss_rate::.switch_cpus.data     0.106767                       # mshr miss rate for demand accesses
system.cpu.dcache.demand_mshr_miss_rate::total     0.106767                       # mshr miss rate for demand accesses
system.cpu.dcache.overall_mshr_miss_rate::.switch_cpus.data     0.106767                       # mshr miss rate for overall accesses
system.cpu.dcache.overall_mshr_miss_rate::total     0.106767                       # mshr miss rate for overall accesses
system.cpu.dcache.demand_avg_mshr_miss_latency::.switch_cpus.data 56240.600034                       # average overall mshr miss latency
system.cpu.dcache.demand_avg_mshr_miss_latency::total 56240.600034                       # average overall mshr miss latency
system.cpu.dcache.overall_avg_mshr_miss_latency::.switch_cpus.data 56240.600034                       # average overall mshr miss latency
system.cpu.dcache.overall_avg_mshr_miss_latency::total 56240.600034                       # average overall mshr miss latency
system.cpu.dcache.replacements                 279387                       # number of replacements
system.cpu.dcache.csize                      15510625                       # Cache sizes in total
system.cpu.dcache.ReadReq_hits::.cpu.data            2                       # number of ReadReq hits
system.cpu.dcache.ReadReq_hits::.switch_cpus.data      1186072                       # number of ReadReq hits
system.cpu.dcache.ReadReq_hits::total         1186074                       # number of ReadReq hits
system.cpu.dcache.ReadReq_misses::.cpu.data            2                       # number of ReadReq misses
system.cpu.dcache.ReadReq_misses::.switch_cpus.data       976351                       # number of ReadReq misses
system.cpu.dcache.ReadReq_misses::total        976353                       # number of ReadReq misses
system.cpu.dcache.ReadReq_miss_latency::.switch_cpus.data  49890515786                       # number of ReadReq miss cycles
system.cpu.dcache.ReadReq_miss_latency::total  49890515786                       # number of ReadReq miss cycles
system.cpu.dcache.ReadReq_accesses::.cpu.data            4                       # number of ReadReq accesses(hits+misses)
system.cpu.dcache.ReadReq_accesses::.switch_cpus.data      2162423                       # number of ReadReq accesses(hits+misses)
system.cpu.dcache.ReadReq_accesses::total      2162427                       # number of ReadReq accesses(hits+misses)
system.cpu.dcache.ReadReq_miss_rate::.cpu.data     0.500000                       # miss rate for ReadReq accesses
system.cpu.dcache.ReadReq_miss_rate::.switch_cpus.data     0.451508                       # miss rate for ReadReq accesses
system.cpu.dcache.ReadReq_miss_rate::total     0.451508                       # miss rate for ReadReq accesses
system.cpu.dcache.ReadReq_avg_miss_latency::.switch_cpus.data 51098.954972                       # average ReadReq miss latency
system.cpu.dcache.ReadReq_avg_miss_latency::total 51098.850299                       # average ReadReq miss latency
system.cpu.dcache.ReadReq_mshr_hits::.switch_cpus.data       781298                       # number of ReadReq MSHR hits
system.cpu.dcache.ReadReq_mshr_hits::total       781298                       # number of ReadReq MSHR hits
system.cpu.dcache.ReadReq_mshr_misses::.switch_cpus.data       195053                       # number of ReadReq MSHR misses
system.cpu.dcache.ReadReq_mshr_misses::total       195053                       # number of ReadReq MSHR misses
system.cpu.dcache.ReadReq_mshr_miss_latency::.switch_cpus.data  12755202672                       # number of ReadReq MSHR miss cycles
system.cpu.dcache.ReadReq_mshr_miss_latency::total  12755202672                       # number of ReadReq MSHR miss cycles
system.cpu.dcache.ReadReq_mshr_miss_rate::.switch_cpus.data     0.090201                       # mshr miss rate for ReadReq accesses
system.cpu.dcache.ReadReq_mshr_miss_rate::total     0.090201                       # mshr miss rate for ReadReq accesses
system.cpu.dcache.ReadReq_avg_mshr_miss_latency::.switch_cpus.data 65393.522130                       # average ReadReq mshr miss latency
system.cpu.dcache.ReadReq_avg_mshr_miss_latency::total 65393.522130                       # average ReadReq mshr miss latency
system.cpu.dcache.WriteReq_hits::.switch_cpus.data       374306                       # number of WriteReq hits
system.cpu.dcache.WriteReq_hits::total         374306                       # number of WriteReq hits
system.cpu.dcache.WriteReq_misses::.switch_cpus.data        84848                       # number of WriteReq misses
system.cpu.dcache.WriteReq_misses::total        84848                       # number of WriteReq misses
system.cpu.dcache.WriteReq_miss_latency::.switch_cpus.data   3033770335                       # number of WriteReq miss cycles
system.cpu.dcache.WriteReq_miss_latency::total   3033770335                       # number of WriteReq miss cycles
system.cpu.dcache.WriteReq_accesses::.switch_cpus.data       459154                       # number of WriteReq accesses(hits+misses)
system.cpu.dcache.WriteReq_accesses::total       459154                       # number of WriteReq accesses(hits+misses)
system.cpu.dcache.WriteReq_miss_rate::.switch_cpus.data     0.184792                       # miss rate for WriteReq accesses
system.cpu.dcache.WriteReq_miss_rate::total     0.184792                       # miss rate for WriteReq accesses
system.cpu.dcache.WriteReq_avg_miss_latency::.switch_cpus.data 35755.354693                       # average WriteReq miss latency
system.cpu.dcache.WriteReq_avg_miss_latency::total 35755.354693                       # average WriteReq miss latency
system.cpu.dcache.WriteReq_mshr_hits::.switch_cpus.data            2                       # number of WriteReq MSHR hits
system.cpu.dcache.WriteReq_mshr_hits::total            2                       # number of WriteReq MSHR hits
system.cpu.dcache.WriteReq_mshr_misses::.switch_cpus.data        84846                       # number of WriteReq MSHR misses
system.cpu.dcache.WriteReq_mshr_misses::total        84846                       # number of WriteReq MSHR misses
system.cpu.dcache.WriteReq_mshr_miss_latency::.switch_cpus.data   2986485037                       # number of WriteReq MSHR miss cycles
system.cpu.dcache.WriteReq_mshr_miss_latency::total   2986485037                       # number of WriteReq MSHR miss cycles
system.cpu.dcache.WriteReq_mshr_miss_rate::.switch_cpus.data     0.184788                       # mshr miss rate for WriteReq accesses
system.cpu.dcache.WriteReq_mshr_miss_rate::total     0.184788                       # mshr miss rate for WriteReq accesses
system.cpu.dcache.WriteReq_avg_mshr_miss_latency::.switch_cpus.data 35198.890189                       # average WriteReq mshr miss latency
system.cpu.dcache.WriteReq_avg_mshr_miss_latency::total 35198.890189                       # average WriteReq mshr miss latency
system.cpu.dcache.tags.pwrStateResidencyTicks::UNDEFINED 11521809158152                       # Cumulative time (in ticks) in various power states
system.cpu.dcache.tags.tagsinuse             0.388031                       # Cycle average of tags in use
system.cpu.dcache.tags.total_refs             1840279                       # Total number of references to valid blocks.
system.cpu.dcache.tags.sampled_refs            279899                       # Sample count of references to valid blocks.
system.cpu.dcache.tags.avg_refs              6.574797                       # Average number of references to valid blocks.
system.cpu.dcache.tags.warmup_cycle      11513068498158                       # Cycle when the warmup percentage was hit.
system.cpu.dcache.tags.occ_blocks::.cpu.data     0.000007                       # Average occupied blocks per requestor
system.cpu.dcache.tags.occ_blocks::.switch_cpus.data     0.388024                       # Average occupied blocks per requestor
system.cpu.dcache.tags.occ_percent::.cpu.data     0.000000                       # Average percentage of cache occupancy
system.cpu.dcache.tags.occ_percent::.switch_cpus.data     0.000758                       # Average percentage of cache occupancy
system.cpu.dcache.tags.occ_percent::total     0.000758                       # Average percentage of cache occupancy
system.cpu.dcache.tags.occ_task_id_blocks::1024          512                       # Occupied blocks per task id
system.cpu.dcache.tags.age_task_id_blocks_1024::0          366                       # Occupied blocks per task id
system.cpu.dcache.tags.age_task_id_blocks_1024::1          144                       # Occupied blocks per task id
system.cpu.dcache.tags.age_task_id_blocks_1024::3            2                       # Occupied blocks per task id
system.cpu.dcache.tags.occ_task_id_percent::1024            1                       # Percentage of cache occupancy per task id
system.cpu.dcache.tags.tag_accesses          21252547                       # Number of tag accesses
system.cpu.dcache.tags.data_accesses         21252547                       # Number of data accesses

---------- End Simulation Statistics   ----------
