
---------- Begin Simulation Statistics ----------
final_tick                               9495792567994                       # Number of ticks from beginning of simulation (restored from checkpoints and never reset)
host_inst_rate                                 122143                       # Simulator instruction rate (inst/s)
host_mem_usage                               16934392                       # Number of bytes of host memory used
host_op_rate                                   184086                       # Simulator op (including micro ops) rate (op/s)
host_seconds                                    81.87                       # Real time elapsed on the host
host_tick_rate                               38819871                       # Simulator tick rate (ticks/s)
sim_freq                                 1000000000000                       # Frequency of simulated ticks
sim_insts                                    10000021                       # Number of instructions simulated
sim_ops                                      15071398                       # Number of ops (including micro ops) simulated
sim_seconds                                  0.003178                       # Number of seconds simulated
sim_ticks                                  3178248494                       # Number of ticks simulated
system.cpu.Branches                                 1                       # Number of branches fetched
system.cpu.committedInsts                          18                       # Number of instructions committed
system.cpu.committedOps                            26                       # Number of ops (including micro ops) committed
system.cpu.dtb.rdAccesses                          11                       # TLB accesses on read requests
system.cpu.dtb.rdMisses                             0                       # TLB misses on read requests
system.cpu.dtb.wrAccesses                           2                       # TLB accesses on write requests
system.cpu.dtb.wrMisses                             0                       # TLB misses on write requests
system.cpu.idle_fraction                            0                       # Percentage of idle cycles
system.cpu.itb.rdAccesses                           0                       # TLB accesses on read requests
system.cpu.itb.rdMisses                             0                       # TLB misses on read requests
system.cpu.itb.wrAccesses                          27                       # TLB accesses on write requests
system.cpu.itb.wrMisses                             0                       # TLB misses on write requests
system.cpu.not_idle_fraction                        1                       # Percentage of non-idle cycles
system.cpu.numCycles                               35                       # number of cpu cycles simulated
system.cpu.numWorkItemsCompleted                    0                       # number of work items this cpu completed
system.cpu.numWorkItemsStarted                      0                       # number of work items this cpu started
system.cpu.num_busy_cycles                         35                       # Number of busy cycles
system.cpu.num_cc_register_reads                   25                       # number of times the CC registers were read
system.cpu.num_cc_register_writes                  12                       # number of times the CC registers were written
system.cpu.num_conditional_control_insts            1                       # number of instructions that are conditional controls
system.cpu.num_fp_alu_accesses                      0                       # Number of float alu accesses
system.cpu.num_fp_insts                             0                       # number of float instructions
system.cpu.num_fp_register_reads                    0                       # number of times the floating registers were read
system.cpu.num_fp_register_writes                   0                       # number of times the floating registers were written
system.cpu.num_func_calls                           0                       # number of times a function call or return occured
system.cpu.num_idle_cycles                          0                       # Number of idle cycles
system.cpu.num_int_alu_accesses                    26                       # Number of integer alu accesses
system.cpu.num_int_insts                           26                       # number of integer instructions
system.cpu.num_int_register_reads                  69                       # number of times the integer registers were read
system.cpu.num_int_register_writes                 23                       # number of times the integer registers were written
system.cpu.num_load_insts                          11                       # Number of load instructions
system.cpu.num_mem_refs                            13                       # number of memory refs
system.cpu.num_store_insts                          2                       # Number of store instructions
system.cpu.num_vec_alu_accesses                     0                       # Number of vector alu accesses
system.cpu.num_vec_insts                            0                       # number of vector instructions
system.cpu.num_vec_register_reads                   0                       # number of times the vector registers were read
system.cpu.num_vec_register_writes                  0                       # number of times the vector registers were written
system.cpu.op_class::No_OpClass                     0      0.00%      0.00% # Class of executed instruction
system.cpu.op_class::IntAlu                        13     50.00%     50.00% # Class of executed instruction
system.cpu.op_class::IntMult                        0      0.00%     50.00% # Class of executed instruction
system.cpu.op_class::IntDiv                         0      0.00%     50.00% # Class of executed instruction
system.cpu.op_class::FloatAdd                       0      0.00%     50.00% # Class of executed instruction
system.cpu.op_class::FloatCmp                       0      0.00%     50.00% # Class of executed instruction
system.cpu.op_class::FloatCvt                       0      0.00%     50.00% # Class of executed instruction
system.cpu.op_class::FloatMult                      0      0.00%     50.00% # Class of executed instruction
system.cpu.op_class::FloatMultAcc                   0      0.00%     50.00% # Class of executed instruction
system.cpu.op_class::FloatDiv                       0      0.00%     50.00% # Class of executed instruction
system.cpu.op_class::FloatMisc                      0      0.00%     50.00% # Class of executed instruction
system.cpu.op_class::FloatSqrt                      0      0.00%     50.00% # Class of executed instruction
system.cpu.op_class::SimdAdd                        0      0.00%     50.00% # Class of executed instruction
system.cpu.op_class::SimdAddAcc                     0      0.00%     50.00% # Class of executed instruction
system.cpu.op_class::SimdAlu                        0      0.00%     50.00% # Class of executed instruction
system.cpu.op_class::SimdCmp                        0      0.00%     50.00% # Class of executed instruction
system.cpu.op_class::SimdCvt                        0      0.00%     50.00% # Class of executed instruction
system.cpu.op_class::SimdMisc                       0      0.00%     50.00% # Class of executed instruction
system.cpu.op_class::SimdMult                       0      0.00%     50.00% # Class of executed instruction
system.cpu.op_class::SimdMultAcc                    0      0.00%     50.00% # Class of executed instruction
system.cpu.op_class::SimdShift                      0      0.00%     50.00% # Class of executed instruction
system.cpu.op_class::SimdShiftAcc                   0      0.00%     50.00% # Class of executed instruction
system.cpu.op_class::SimdDiv                        0      0.00%     50.00% # Class of executed instruction
system.cpu.op_class::SimdSqrt                       0      0.00%     50.00% # Class of executed instruction
system.cpu.op_class::SimdFloatAdd                   0      0.00%     50.00% # Class of executed instruction
system.cpu.op_class::SimdFloatAlu                   0      0.00%     50.00% # Class of executed instruction
system.cpu.op_class::SimdFloatCmp                   0      0.00%     50.00% # Class of executed instruction
system.cpu.op_class::SimdFloatCvt                   0      0.00%     50.00% # Class of executed instruction
system.cpu.op_class::SimdFloatDiv                   0      0.00%     50.00% # Class of executed instruction
system.cpu.op_class::SimdFloatMisc                  0      0.00%     50.00% # Class of executed instruction
system.cpu.op_class::SimdFloatMult                  0      0.00%     50.00% # Class of executed instruction
system.cpu.op_class::SimdFloatMultAcc               0      0.00%     50.00% # Class of executed instruction
system.cpu.op_class::SimdFloatSqrt                  0      0.00%     50.00% # Class of executed instruction
system.cpu.op_class::SimdReduceAdd                  0      0.00%     50.00% # Class of executed instruction
system.cpu.op_class::SimdReduceAlu                  0      0.00%     50.00% # Class of executed instruction
system.cpu.op_class::SimdReduceCmp                  0      0.00%     50.00% # Class of executed instruction
system.cpu.op_class::SimdFloatReduceAdd             0      0.00%     50.00% # Class of executed instruction
system.cpu.op_class::SimdFloatReduceCmp             0      0.00%     50.00% # Class of executed instruction
system.cpu.op_class::SimdAes                        0      0.00%     50.00% # Class of executed instruction
system.cpu.op_class::SimdAesMix                     0      0.00%     50.00% # Class of executed instruction
system.cpu.op_class::SimdSha1Hash                   0      0.00%     50.00% # Class of executed instruction
system.cpu.op_class::SimdSha1Hash2                  0      0.00%     50.00% # Class of executed instruction
system.cpu.op_class::SimdSha256Hash                 0      0.00%     50.00% # Class of executed instruction
system.cpu.op_class::SimdSha256Hash2                0      0.00%     50.00% # Class of executed instruction
system.cpu.op_class::SimdShaSigma2                  0      0.00%     50.00% # Class of executed instruction
system.cpu.op_class::SimdShaSigma3                  0      0.00%     50.00% # Class of executed instruction
system.cpu.op_class::SimdPredAlu                    0      0.00%     50.00% # Class of executed instruction
system.cpu.op_class::MemRead                       11     42.31%     92.31% # Class of executed instruction
system.cpu.op_class::MemWrite                       2      7.69%    100.00% # Class of executed instruction
system.cpu.op_class::FloatMemRead                   0      0.00%    100.00% # Class of executed instruction
system.cpu.op_class::FloatMemWrite                  0      0.00%    100.00% # Class of executed instruction
system.cpu.op_class::IprAccess                      0      0.00%    100.00% # Class of executed instruction
system.cpu.op_class::InstPrefetch                   0      0.00%    100.00% # Class of executed instruction
system.cpu.op_class::total                         26                       # Class of executed instruction
system.cpu.workload.numSyscalls                     0                       # Number of system calls
system.membus.snoop_filter.hit_multi_requests            0                       # Number of requests hitting in the snoop filter with multiple (>1) holders of the requested data.
system.membus.snoop_filter.hit_multi_snoops            0                       # Number of snoops hitting in the snoop filter with multiple (>1) holders of the requested data.
system.membus.snoop_filter.hit_single_requests        27230                       # Number of requests hitting in the snoop filter with a single holder of the requested data.
system.membus.snoop_filter.hit_single_snoops            0                       # Number of snoops hitting in the snoop filter with a single holder of the requested data.
system.membus.snoop_filter.tot_requests         58629                       # Total number of requests made to the snoop filter.
system.membus.snoop_filter.tot_snoops               0                       # Total number of snoops made to the snoop filter.
system.switch_cpus.branchPred.BTBCorrect            0                       # Number of correct BTB predictions (this stat may not work properly.
system.switch_cpus.branchPred.BTBHitPct      0.000000                       # BTB Hit Percentage
system.switch_cpus.branchPred.BTBHits               0                       # Number of BTB hits
system.switch_cpus.branchPred.BTBLookups       382887                       # Number of BTB lookups
system.switch_cpus.branchPred.RASInCorrect            0                       # Number of incorrect RAS predictions.
system.switch_cpus.branchPred.condIncorrect        10538                       # Number of conditional branches incorrect
system.switch_cpus.branchPred.condPredicted       490300                       # Number of conditional branches predicted
system.switch_cpus.branchPred.indirectHits       333662                       # Number of indirect target hits.
system.switch_cpus.branchPred.indirectLookups       382887                       # Number of indirect predictor lookups.
system.switch_cpus.branchPred.indirectMisses        49225                       # Number of indirect misses.
system.switch_cpus.branchPred.lookups          490314                       # Number of BP lookups
system.switch_cpus.branchPred.usedRAS               2                       # Number of times the RAS was used to get a target.
system.switch_cpus.branchPredindirectMispredicted           73                       # Number of mispredicted indirect branches.
system.switch_cpus.cc_regfile_reads          16315210                       # number of cc regfile reads
system.switch_cpus.cc_regfile_writes          8163477                       # number of cc regfile writes
system.switch_cpus.commit.amos                      0                       # Number of atomic instructions committed
system.switch_cpus.commit.branchMispredicts        10538                       # The number of times a branch was mispredicted
system.switch_cpus.commit.branches             461108                       # Number of branches committed
system.switch_cpus.commit.bw_lim_events       1072412                       # number cycles where commit BW limit reached
system.switch_cpus.commit.commitSquashedInsts       560381                       # The number of squashed insts skipped by commit
system.switch_cpus.commit.committedInsts     10000003                       # Number of instructions committed
system.switch_cpus.commit.committedOps       15071372                       # Number of ops (including micro ops) committed
system.switch_cpus.commit.committed_per_cycle::samples     11353369                       # Number of insts commited each cycle
system.switch_cpus.commit.committed_per_cycle::mean     1.327480                       # Number of insts commited each cycle
system.switch_cpus.commit.committed_per_cycle::stdev     2.506801                       # Number of insts commited each cycle
system.switch_cpus.commit.committed_per_cycle::underflows            0      0.00%      0.00% # Number of insts commited each cycle
system.switch_cpus.commit.committed_per_cycle::0      7186686     63.30%     63.30% # Number of insts commited each cycle
system.switch_cpus.commit.committed_per_cycle::1      1937573     17.07%     80.37% # Number of insts commited each cycle
system.switch_cpus.commit.committed_per_cycle::2       208872      1.84%     82.21% # Number of insts commited each cycle
system.switch_cpus.commit.committed_per_cycle::3       308067      2.71%     84.92% # Number of insts commited each cycle
system.switch_cpus.commit.committed_per_cycle::4       370871      3.27%     88.19% # Number of insts commited each cycle
system.switch_cpus.commit.committed_per_cycle::5        26725      0.24%     88.42% # Number of insts commited each cycle
system.switch_cpus.commit.committed_per_cycle::6        99692      0.88%     89.30% # Number of insts commited each cycle
system.switch_cpus.commit.committed_per_cycle::7       142471      1.25%     90.55% # Number of insts commited each cycle
system.switch_cpus.commit.committed_per_cycle::8      1072412      9.45%    100.00% # Number of insts commited each cycle
system.switch_cpus.commit.committed_per_cycle::overflows            0      0.00%    100.00% # Number of insts commited each cycle
system.switch_cpus.commit.committed_per_cycle::min_value            0                       # Number of insts commited each cycle
system.switch_cpus.commit.committed_per_cycle::max_value            8                       # Number of insts commited each cycle
system.switch_cpus.commit.committed_per_cycle::total     11353369                       # Number of insts commited each cycle
system.switch_cpus.commit.fp_insts                  0                       # Number of committed floating point instructions.
system.switch_cpus.commit.function_calls            0                       # Number of function calls committed.
system.switch_cpus.commit.int_insts          15070352                       # Number of committed integer instructions.
system.switch_cpus.commit.loads               4308850                       # Number of loads committed
system.switch_cpus.commit.membars                   0                       # Number of memory barriers committed
system.switch_cpus.commit.mispred_commit_branch        10269                       # mein_hi_hun
system.switch_cpus.commit.op_class_0::No_OpClass          510      0.00%      0.00% # Class of committed instruction
system.switch_cpus.commit.op_class_0::IntAlu      9220963     61.18%     61.19% # Class of committed instruction
system.switch_cpus.commit.op_class_0::IntMult            0      0.00%     61.19% # Class of committed instruction
system.switch_cpus.commit.op_class_0::IntDiv            0      0.00%     61.19% # Class of committed instruction
system.switch_cpus.commit.op_class_0::FloatAdd            0      0.00%     61.19% # Class of committed instruction
system.switch_cpus.commit.op_class_0::FloatCmp            0      0.00%     61.19% # Class of committed instruction
system.switch_cpus.commit.op_class_0::FloatCvt            0      0.00%     61.19% # Class of committed instruction
system.switch_cpus.commit.op_class_0::FloatMult            0      0.00%     61.19% # Class of committed instruction
system.switch_cpus.commit.op_class_0::FloatMultAcc            0      0.00%     61.19% # Class of committed instruction
system.switch_cpus.commit.op_class_0::FloatDiv            0      0.00%     61.19% # Class of committed instruction
system.switch_cpus.commit.op_class_0::FloatMisc            0      0.00%     61.19% # Class of committed instruction
system.switch_cpus.commit.op_class_0::FloatSqrt            0      0.00%     61.19% # Class of committed instruction
system.switch_cpus.commit.op_class_0::SimdAdd            0      0.00%     61.19% # Class of committed instruction
system.switch_cpus.commit.op_class_0::SimdAddAcc            0      0.00%     61.19% # Class of committed instruction
system.switch_cpus.commit.op_class_0::SimdAlu            0      0.00%     61.19% # Class of committed instruction
system.switch_cpus.commit.op_class_0::SimdCmp            0      0.00%     61.19% # Class of committed instruction
system.switch_cpus.commit.op_class_0::SimdCvt            0      0.00%     61.19% # Class of committed instruction
system.switch_cpus.commit.op_class_0::SimdMisc            0      0.00%     61.19% # Class of committed instruction
system.switch_cpus.commit.op_class_0::SimdMult            0      0.00%     61.19% # Class of committed instruction
system.switch_cpus.commit.op_class_0::SimdMultAcc            0      0.00%     61.19% # Class of committed instruction
system.switch_cpus.commit.op_class_0::SimdShift            0      0.00%     61.19% # Class of committed instruction
system.switch_cpus.commit.op_class_0::SimdShiftAcc            0      0.00%     61.19% # Class of committed instruction
system.switch_cpus.commit.op_class_0::SimdDiv            0      0.00%     61.19% # Class of committed instruction
system.switch_cpus.commit.op_class_0::SimdSqrt            0      0.00%     61.19% # Class of committed instruction
system.switch_cpus.commit.op_class_0::SimdFloatAdd            0      0.00%     61.19% # Class of committed instruction
system.switch_cpus.commit.op_class_0::SimdFloatAlu            0      0.00%     61.19% # Class of committed instruction
system.switch_cpus.commit.op_class_0::SimdFloatCmp            0      0.00%     61.19% # Class of committed instruction
system.switch_cpus.commit.op_class_0::SimdFloatCvt            0      0.00%     61.19% # Class of committed instruction
system.switch_cpus.commit.op_class_0::SimdFloatDiv            0      0.00%     61.19% # Class of committed instruction
system.switch_cpus.commit.op_class_0::SimdFloatMisc            0      0.00%     61.19% # Class of committed instruction
system.switch_cpus.commit.op_class_0::SimdFloatMult            0      0.00%     61.19% # Class of committed instruction
system.switch_cpus.commit.op_class_0::SimdFloatMultAcc            0      0.00%     61.19% # Class of committed instruction
system.switch_cpus.commit.op_class_0::SimdFloatSqrt            0      0.00%     61.19% # Class of committed instruction
system.switch_cpus.commit.op_class_0::SimdReduceAdd            0      0.00%     61.19% # Class of committed instruction
system.switch_cpus.commit.op_class_0::SimdReduceAlu            0      0.00%     61.19% # Class of committed instruction
system.switch_cpus.commit.op_class_0::SimdReduceCmp            0      0.00%     61.19% # Class of committed instruction
system.switch_cpus.commit.op_class_0::SimdFloatReduceAdd            0      0.00%     61.19% # Class of committed instruction
system.switch_cpus.commit.op_class_0::SimdFloatReduceCmp            0      0.00%     61.19% # Class of committed instruction
system.switch_cpus.commit.op_class_0::SimdAes            0      0.00%     61.19% # Class of committed instruction
system.switch_cpus.commit.op_class_0::SimdAesMix            0      0.00%     61.19% # Class of committed instruction
system.switch_cpus.commit.op_class_0::SimdSha1Hash            0      0.00%     61.19% # Class of committed instruction
system.switch_cpus.commit.op_class_0::SimdSha1Hash2            0      0.00%     61.19% # Class of committed instruction
system.switch_cpus.commit.op_class_0::SimdSha256Hash            0      0.00%     61.19% # Class of committed instruction
system.switch_cpus.commit.op_class_0::SimdSha256Hash2            0      0.00%     61.19% # Class of committed instruction
system.switch_cpus.commit.op_class_0::SimdShaSigma2            0      0.00%     61.19% # Class of committed instruction
system.switch_cpus.commit.op_class_0::SimdShaSigma3            0      0.00%     61.19% # Class of committed instruction
system.switch_cpus.commit.op_class_0::SimdPredAlu            0      0.00%     61.19% # Class of committed instruction
system.switch_cpus.commit.op_class_0::MemRead      4308850     28.59%     89.77% # Class of committed instruction
system.switch_cpus.commit.op_class_0::MemWrite      1541049     10.23%    100.00% # Class of committed instruction
system.switch_cpus.commit.op_class_0::FloatMemRead            0      0.00%    100.00% # Class of committed instruction
system.switch_cpus.commit.op_class_0::FloatMemWrite            0      0.00%    100.00% # Class of committed instruction
system.switch_cpus.commit.op_class_0::IprAccess            0      0.00%    100.00% # Class of committed instruction
system.switch_cpus.commit.op_class_0::InstPrefetch            0      0.00%    100.00% # Class of committed instruction
system.switch_cpus.commit.op_class_0::total     15071372                       # Class of committed instruction
system.switch_cpus.commit.refs                5849899                       # Number of memory references committed
system.switch_cpus.commit.swp_count                 0                       # Number of s/w prefetches committed
system.switch_cpus.commit.vec_insts                 0                       # Number of committed Vector instructions.
system.switch_cpus.committedInsts            10000003                       # Number of Instructions Simulated
system.switch_cpus.committedOps              15071372                       # Number of Ops (including micro ops) Simulated
system.switch_cpus.cpi                       1.143251                       # CPI: Cycles Per Instruction
system.switch_cpus.cpi_total                 1.143251                       # CPI: Total CPI of All Threads
system.switch_cpus.decode.BlockedCycles       8625228                       # Number of cycles decode is blocked
system.switch_cpus.decode.DecodedInsts       15777940                       # Number of instructions handled by decode
system.switch_cpus.decode.IdleCycles           728858                       # Number of cycles decode is idle
system.switch_cpus.decode.RunCycles           1162285                       # Number of cycles decode is running
system.switch_cpus.decode.SquashCycles          10602                       # Number of cycles decode is squashing
system.switch_cpus.decode.UnblockCycles        904123                       # Number of cycles decode is unblocking
system.switch_cpus.dtb.rdAccesses             4469869                       # TLB accesses on read requests
system.switch_cpus.dtb.rdMisses                    36                       # TLB misses on read requests
system.switch_cpus.dtb.wrAccesses             1557135                       # TLB accesses on write requests
system.switch_cpus.dtb.wrMisses                   457                       # TLB misses on write requests
system.switch_cpus.fetch.Branches              490314                       # Number of branches that fetch encountered
system.switch_cpus.fetch.CacheLines           1165051                       # Number of cache lines fetched
system.switch_cpus.fetch.Cycles              10245564                       # Number of cycles fetch has run and was not squashing or blocked
system.switch_cpus.fetch.IcacheSquashes           823                       # Number of outstanding Icache misses that were squashed
system.switch_cpus.fetch.Insts               10675309                       # Number of instructions fetch has processed
system.switch_cpus.fetch.SquashCycles           21204                       # Number of cycles fetch has spent squashing
system.switch_cpus.fetch.branchRate          0.042888                       # Number of branch fetches per cycle
system.switch_cpus.fetch.icacheStallCycles      1174941                       # Number of cycles fetch is stalled on an Icache miss
system.switch_cpus.fetch.predictedBranches       333664                       # Number of branches that fetch has predicted taken
system.switch_cpus.fetch.rate                0.933768                       # Number of inst fetches per cycle
system.switch_cpus.fetch.rateDist::samples     11431107                       # Number of instructions fetched each cycle (Total)
system.switch_cpus.fetch.rateDist::mean      1.407122                       # Number of instructions fetched each cycle (Total)
system.switch_cpus.fetch.rateDist::stdev     2.787870                       # Number of instructions fetched each cycle (Total)
system.switch_cpus.fetch.rateDist::underflows            0      0.00%      0.00% # Number of instructions fetched each cycle (Total)
system.switch_cpus.fetch.rateDist::0          8884869     77.73%     77.73% # Number of instructions fetched each cycle (Total)
system.switch_cpus.fetch.rateDist::1            37945      0.33%     78.06% # Number of instructions fetched each cycle (Total)
system.switch_cpus.fetch.rateDist::2           192491      1.68%     79.74% # Number of instructions fetched each cycle (Total)
system.switch_cpus.fetch.rateDist::3            63501      0.56%     80.30% # Number of instructions fetched each cycle (Total)
system.switch_cpus.fetch.rateDist::4           175118      1.53%     81.83% # Number of instructions fetched each cycle (Total)
system.switch_cpus.fetch.rateDist::5           119488      1.05%     82.87% # Number of instructions fetched each cycle (Total)
system.switch_cpus.fetch.rateDist::6           668347      5.85%     88.72% # Number of instructions fetched each cycle (Total)
system.switch_cpus.fetch.rateDist::7           151249      1.32%     90.04% # Number of instructions fetched each cycle (Total)
system.switch_cpus.fetch.rateDist::8          1138099      9.96%    100.00% # Number of instructions fetched each cycle (Total)
system.switch_cpus.fetch.rateDist::overflows            0      0.00%    100.00% # Number of instructions fetched each cycle (Total)
system.switch_cpus.fetch.rateDist::min_value            0                       # Number of instructions fetched each cycle (Total)
system.switch_cpus.fetch.rateDist::max_value            8                       # Number of instructions fetched each cycle (Total)
system.switch_cpus.fetch.rateDist::total     11431107                       # Number of instructions fetched each cycle (Total)
system.switch_cpus.fp_regfile_writes               56                       # number of floating regfile writes
system.switch_cpus.idleCycles                    1405                       # Total number of cycles that the CPU has spent unscheduled due to idling
system.switch_cpus.iew.Average_branch_resolution_cycles            0                       # sirf mispred wala
system.switch_cpus.iew.branchMispredicts        10540                       # Number of branch mispredicts detected at execute
system.switch_cpus.iew.exec_branches           470899                       # Number of branches executed
system.switch_cpus.iew.exec_nop                     0                       # number of nop insts executed
system.switch_cpus.iew.exec_rate             1.350516                       # Inst execution rate
system.switch_cpus.iew.exec_refs              6027940                       # number of memory reference insts executed
system.switch_cpus.iew.exec_stores            1557135                       # Number of stores executed
system.switch_cpus.iew.exec_swp                     0                       # number of swp insts executed
system.switch_cpus.iew.global_million_exceeded_g            0                       # multiple with  million wala
system.switch_cpus.iew.global_million_timer_g 107563.760000                       # less than million wala
system.switch_cpus.iew.iewBlockCycles          239719                       # Number of cycles IEW is blocking
system.switch_cpus.iew.iewDispLoadInsts       4477391                       # Number of dispatched load instructions
system.switch_cpus.iew.iewDispNonSpecInsts            0                       # Number of dispatched non-speculative instructions
system.switch_cpus.iew.iewDispSquashedInsts            8                       # Number of squashed instructions skipped by dispatch
system.switch_cpus.iew.iewDispStoreInsts      1602324                       # Number of dispatched store instructions
system.switch_cpus.iew.iewDispatchedInsts     15631784                       # Number of instructions dispatched to IQ
system.switch_cpus.iew.iewExecLoadInsts       4470805                       # Number of load instructions executed
system.switch_cpus.iew.iewExecSquashedInsts        12660                       # Number of squashed instructions skipped in execute
system.switch_cpus.iew.iewExecutedInsts      15439795                       # Number of executed instructions
system.switch_cpus.iew.iewIQFullEvents           1466                       # Number of times the IQ has become full, causing a stall
system.switch_cpus.iew.iewIdleCycles                0                       # Number of cycles IEW is idle
system.switch_cpus.iew.iewLSQFullEvents       2225915                       # Number of times the LSQ has become full, causing a stall
system.switch_cpus.iew.iewSquashCycles          10602                       # Number of cycles IEW is squashing
system.switch_cpus.iew.iewUnblockCycles       2228347                       # Number of cycles IEW is unblocking
system.switch_cpus.iew.lsq.thread0.blockedLoads            0                       # Number of blocked loads due to partial load-store forwarding
system.switch_cpus.iew.lsq.thread0.cacheBlocked          203                       # Number of times an access to memory failed due to the cache being blocked
system.switch_cpus.iew.lsq.thread0.forwLoads       315016                       # Number of loads that had data forwarded from stores
system.switch_cpus.iew.lsq.thread0.ignoredResponses           47                       # Number of memory responses ignored because the instruction is squashed
system.switch_cpus.iew.lsq.thread0.invAddrLoads            0                       # Number of loads ignored due to an invalid address
system.switch_cpus.iew.lsq.thread0.invAddrSwpfs            0                       # Number of software prefetches ignored due to an invalid address
system.switch_cpus.iew.lsq.thread0.memOrderViolation           64                       # Number of memory ordering violations
system.switch_cpus.iew.lsq.thread0.night5            0                       # Number of loads that were rescheduled
system.switch_cpus.iew.lsq.thread0.rescheduledLoads            0                       # Number of loads that were rescheduled
system.switch_cpus.iew.lsq.thread0.squashedLoads       168533                       # Number of loads squashed
system.switch_cpus.iew.lsq.thread0.squashedStores        61271                       # Number of stores squashed
system.switch_cpus.iew.memOrderViolationEvents           64                       # Number of memory order violations
system.switch_cpus.iew.predictedNotTakenIncorrect          373                       # Number of branches that were predicted not taken incorrectly
system.switch_cpus.iew.predictedTakenIncorrect        10167                       # Number of branches that were predicted taken incorrectly
system.switch_cpus.iew.td                           0                       # Number of td executed instructions
system.switch_cpus.iew.wb_consumers          25919553                       # num instructions consuming a value
system.switch_cpus.iew.wb_count              15426308                       # cumulative count of insts written-back
system.switch_cpus.iew.wb_fanout             0.501841                       # average fanout of values written-back
system.switch_cpus.iew.wb_producers          13007507                       # num instructions producing a value
system.switch_cpus.iew.wb_rate               1.349337                       # insts written-back per cycle
system.switch_cpus.iew.wb_sent               15429967                       # cumulative count of insts sent to commit
system.switch_cpus.int_regfile_reads         31557559                       # number of integer regfile reads
system.switch_cpus.int_regfile_writes        13400921                       # number of integer regfile writes
system.switch_cpus.ipc                       0.874699                       # IPC: Instructions Per Cycle
system.switch_cpus.ipc_total                 0.874699                       # IPC: Total IPC of All Threads
system.switch_cpus.iq.FU_type_0::No_OpClass          524      0.00%      0.00% # Type of FU issued
system.switch_cpus.iq.FU_type_0::IntAlu       9417503     60.95%     60.95% # Type of FU issued
system.switch_cpus.iq.FU_type_0::IntMult            0      0.00%     60.95% # Type of FU issued
system.switch_cpus.iq.FU_type_0::IntDiv             0      0.00%     60.95% # Type of FU issued
system.switch_cpus.iq.FU_type_0::FloatAdd            0      0.00%     60.95% # Type of FU issued
system.switch_cpus.iq.FU_type_0::FloatCmp            0      0.00%     60.95% # Type of FU issued
system.switch_cpus.iq.FU_type_0::FloatCvt            0      0.00%     60.95% # Type of FU issued
system.switch_cpus.iq.FU_type_0::FloatMult            0      0.00%     60.95% # Type of FU issued
system.switch_cpus.iq.FU_type_0::FloatMultAcc            0      0.00%     60.95% # Type of FU issued
system.switch_cpus.iq.FU_type_0::FloatDiv            0      0.00%     60.95% # Type of FU issued
system.switch_cpus.iq.FU_type_0::FloatMisc            0      0.00%     60.95% # Type of FU issued
system.switch_cpus.iq.FU_type_0::FloatSqrt            0      0.00%     60.95% # Type of FU issued
system.switch_cpus.iq.FU_type_0::SimdAdd            0      0.00%     60.95% # Type of FU issued
system.switch_cpus.iq.FU_type_0::SimdAddAcc            0      0.00%     60.95% # Type of FU issued
system.switch_cpus.iq.FU_type_0::SimdAlu            0      0.00%     60.95% # Type of FU issued
system.switch_cpus.iq.FU_type_0::SimdCmp            0      0.00%     60.95% # Type of FU issued
system.switch_cpus.iq.FU_type_0::SimdCvt            0      0.00%     60.95% # Type of FU issued
system.switch_cpus.iq.FU_type_0::SimdMisc            0      0.00%     60.95% # Type of FU issued
system.switch_cpus.iq.FU_type_0::SimdMult            0      0.00%     60.95% # Type of FU issued
system.switch_cpus.iq.FU_type_0::SimdMultAcc            0      0.00%     60.95% # Type of FU issued
system.switch_cpus.iq.FU_type_0::SimdShift            0      0.00%     60.95% # Type of FU issued
system.switch_cpus.iq.FU_type_0::SimdShiftAcc            0      0.00%     60.95% # Type of FU issued
system.switch_cpus.iq.FU_type_0::SimdDiv            0      0.00%     60.95% # Type of FU issued
system.switch_cpus.iq.FU_type_0::SimdSqrt            0      0.00%     60.95% # Type of FU issued
system.switch_cpus.iq.FU_type_0::SimdFloatAdd            0      0.00%     60.95% # Type of FU issued
system.switch_cpus.iq.FU_type_0::SimdFloatAlu            0      0.00%     60.95% # Type of FU issued
system.switch_cpus.iq.FU_type_0::SimdFloatCmp            0      0.00%     60.95% # Type of FU issued
system.switch_cpus.iq.FU_type_0::SimdFloatCvt            0      0.00%     60.95% # Type of FU issued
system.switch_cpus.iq.FU_type_0::SimdFloatDiv            0      0.00%     60.95% # Type of FU issued
system.switch_cpus.iq.FU_type_0::SimdFloatMisc            0      0.00%     60.95% # Type of FU issued
system.switch_cpus.iq.FU_type_0::SimdFloatMult            0      0.00%     60.95% # Type of FU issued
system.switch_cpus.iq.FU_type_0::SimdFloatMultAcc            0      0.00%     60.95% # Type of FU issued
system.switch_cpus.iq.FU_type_0::SimdFloatSqrt            0      0.00%     60.95% # Type of FU issued
system.switch_cpus.iq.FU_type_0::SimdReduceAdd            0      0.00%     60.95% # Type of FU issued
system.switch_cpus.iq.FU_type_0::SimdReduceAlu            0      0.00%     60.95% # Type of FU issued
system.switch_cpus.iq.FU_type_0::SimdReduceCmp            0      0.00%     60.95% # Type of FU issued
system.switch_cpus.iq.FU_type_0::SimdFloatReduceAdd            0      0.00%     60.95% # Type of FU issued
system.switch_cpus.iq.FU_type_0::SimdFloatReduceCmp            0      0.00%     60.95% # Type of FU issued
system.switch_cpus.iq.FU_type_0::SimdAes            0      0.00%     60.95% # Type of FU issued
system.switch_cpus.iq.FU_type_0::SimdAesMix            0      0.00%     60.95% # Type of FU issued
system.switch_cpus.iq.FU_type_0::SimdSha1Hash            0      0.00%     60.95% # Type of FU issued
system.switch_cpus.iq.FU_type_0::SimdSha1Hash2            0      0.00%     60.95% # Type of FU issued
system.switch_cpus.iq.FU_type_0::SimdSha256Hash            0      0.00%     60.95% # Type of FU issued
system.switch_cpus.iq.FU_type_0::SimdSha256Hash2            0      0.00%     60.95% # Type of FU issued
system.switch_cpus.iq.FU_type_0::SimdShaSigma2            0      0.00%     60.95% # Type of FU issued
system.switch_cpus.iq.FU_type_0::SimdShaSigma3            0      0.00%     60.95% # Type of FU issued
system.switch_cpus.iq.FU_type_0::SimdPredAlu            0      0.00%     60.95% # Type of FU issued
system.switch_cpus.iq.FU_type_0::MemRead      4473475     28.95%     89.90% # Type of FU issued
system.switch_cpus.iq.FU_type_0::MemWrite      1560954     10.10%    100.00% # Type of FU issued
system.switch_cpus.iq.FU_type_0::FloatMemRead            0      0.00%    100.00% # Type of FU issued
system.switch_cpus.iq.FU_type_0::FloatMemWrite            0      0.00%    100.00% # Type of FU issued
system.switch_cpus.iq.FU_type_0::IprAccess            0      0.00%    100.00% # Type of FU issued
system.switch_cpus.iq.FU_type_0::InstPrefetch            0      0.00%    100.00% # Type of FU issued
system.switch_cpus.iq.FU_type_0::total       15452456                       # Type of FU issued
system.switch_cpus.iq.fp_alu_accesses               0                       # Number of floating point alu accesses
system.switch_cpus.iq.fp_inst_queue_reads            0                       # Number of floating instruction queue reads
system.switch_cpus.iq.fp_inst_queue_wakeup_accesses            0                       # Number of floating instruction queue wakeup accesses
system.switch_cpus.iq.fp_inst_queue_writes            0                       # Number of floating instruction queue writes
system.switch_cpus.iq.fu_busy_cnt               49977                       # FU busy when requested
system.switch_cpus.iq.fu_busy_rate           0.003234                       # FU busy rate (busy events/executed inst)
system.switch_cpus.iq.fu_full::No_OpClass            0      0.00%      0.00% # attempts to use FU when none available
system.switch_cpus.iq.fu_full::IntAlu            2235      4.47%      4.47% # attempts to use FU when none available
system.switch_cpus.iq.fu_full::IntMult              0      0.00%      4.47% # attempts to use FU when none available
system.switch_cpus.iq.fu_full::IntDiv               0      0.00%      4.47% # attempts to use FU when none available
system.switch_cpus.iq.fu_full::FloatAdd             0      0.00%      4.47% # attempts to use FU when none available
system.switch_cpus.iq.fu_full::FloatCmp             0      0.00%      4.47% # attempts to use FU when none available
system.switch_cpus.iq.fu_full::FloatCvt             0      0.00%      4.47% # attempts to use FU when none available
system.switch_cpus.iq.fu_full::FloatMult            0      0.00%      4.47% # attempts to use FU when none available
system.switch_cpus.iq.fu_full::FloatMultAcc            0      0.00%      4.47% # attempts to use FU when none available
system.switch_cpus.iq.fu_full::FloatDiv             0      0.00%      4.47% # attempts to use FU when none available
system.switch_cpus.iq.fu_full::FloatMisc            0      0.00%      4.47% # attempts to use FU when none available
system.switch_cpus.iq.fu_full::FloatSqrt            0      0.00%      4.47% # attempts to use FU when none available
system.switch_cpus.iq.fu_full::SimdAdd              0      0.00%      4.47% # attempts to use FU when none available
system.switch_cpus.iq.fu_full::SimdAddAcc            0      0.00%      4.47% # attempts to use FU when none available
system.switch_cpus.iq.fu_full::SimdAlu              0      0.00%      4.47% # attempts to use FU when none available
system.switch_cpus.iq.fu_full::SimdCmp              0      0.00%      4.47% # attempts to use FU when none available
system.switch_cpus.iq.fu_full::SimdCvt              0      0.00%      4.47% # attempts to use FU when none available
system.switch_cpus.iq.fu_full::SimdMisc             0      0.00%      4.47% # attempts to use FU when none available
system.switch_cpus.iq.fu_full::SimdMult             0      0.00%      4.47% # attempts to use FU when none available
system.switch_cpus.iq.fu_full::SimdMultAcc            0      0.00%      4.47% # attempts to use FU when none available
system.switch_cpus.iq.fu_full::SimdShift            0      0.00%      4.47% # attempts to use FU when none available
system.switch_cpus.iq.fu_full::SimdShiftAcc            0      0.00%      4.47% # attempts to use FU when none available
system.switch_cpus.iq.fu_full::SimdDiv              0      0.00%      4.47% # attempts to use FU when none available
system.switch_cpus.iq.fu_full::SimdSqrt             0      0.00%      4.47% # attempts to use FU when none available
system.switch_cpus.iq.fu_full::SimdFloatAdd            0      0.00%      4.47% # attempts to use FU when none available
system.switch_cpus.iq.fu_full::SimdFloatAlu            0      0.00%      4.47% # attempts to use FU when none available
system.switch_cpus.iq.fu_full::SimdFloatCmp            0      0.00%      4.47% # attempts to use FU when none available
system.switch_cpus.iq.fu_full::SimdFloatCvt            0      0.00%      4.47% # attempts to use FU when none available
system.switch_cpus.iq.fu_full::SimdFloatDiv            0      0.00%      4.47% # attempts to use FU when none available
system.switch_cpus.iq.fu_full::SimdFloatMisc            0      0.00%      4.47% # attempts to use FU when none available
system.switch_cpus.iq.fu_full::SimdFloatMult            0      0.00%      4.47% # attempts to use FU when none available
system.switch_cpus.iq.fu_full::SimdFloatMultAcc            0      0.00%      4.47% # attempts to use FU when none available
system.switch_cpus.iq.fu_full::SimdFloatSqrt            0      0.00%      4.47% # attempts to use FU when none available
system.switch_cpus.iq.fu_full::SimdReduceAdd            0      0.00%      4.47% # attempts to use FU when none available
system.switch_cpus.iq.fu_full::SimdReduceAlu            0      0.00%      4.47% # attempts to use FU when none available
system.switch_cpus.iq.fu_full::SimdReduceCmp            0      0.00%      4.47% # attempts to use FU when none available
system.switch_cpus.iq.fu_full::SimdFloatReduceAdd            0      0.00%      4.47% # attempts to use FU when none available
system.switch_cpus.iq.fu_full::SimdFloatReduceCmp            0      0.00%      4.47% # attempts to use FU when none available
system.switch_cpus.iq.fu_full::SimdAes              0      0.00%      4.47% # attempts to use FU when none available
system.switch_cpus.iq.fu_full::SimdAesMix            0      0.00%      4.47% # attempts to use FU when none available
system.switch_cpus.iq.fu_full::SimdSha1Hash            0      0.00%      4.47% # attempts to use FU when none available
system.switch_cpus.iq.fu_full::SimdSha1Hash2            0      0.00%      4.47% # attempts to use FU when none available
system.switch_cpus.iq.fu_full::SimdSha256Hash            0      0.00%      4.47% # attempts to use FU when none available
system.switch_cpus.iq.fu_full::SimdSha256Hash2            0      0.00%      4.47% # attempts to use FU when none available
system.switch_cpus.iq.fu_full::SimdShaSigma2            0      0.00%      4.47% # attempts to use FU when none available
system.switch_cpus.iq.fu_full::SimdShaSigma3            0      0.00%      4.47% # attempts to use FU when none available
system.switch_cpus.iq.fu_full::SimdPredAlu            0      0.00%      4.47% # attempts to use FU when none available
system.switch_cpus.iq.fu_full::MemRead          47409     94.86%     99.33% # attempts to use FU when none available
system.switch_cpus.iq.fu_full::MemWrite           333      0.67%    100.00% # attempts to use FU when none available
system.switch_cpus.iq.fu_full::FloatMemRead            0      0.00%    100.00% # attempts to use FU when none available
system.switch_cpus.iq.fu_full::FloatMemWrite            0      0.00%    100.00% # attempts to use FU when none available
system.switch_cpus.iq.fu_full::IprAccess            0      0.00%    100.00% # attempts to use FU when none available
system.switch_cpus.iq.fu_full::InstPrefetch            0      0.00%    100.00% # attempts to use FU when none available
system.switch_cpus.iq.int_alu_accesses       15501909                       # Number of integer alu accesses
system.switch_cpus.iq.int_inst_queue_reads     42386171                       # Number of integer instruction queue reads
system.switch_cpus.iq.int_inst_queue_wakeup_accesses     15426308                       # Number of integer instruction queue wakeup accesses
system.switch_cpus.iq.int_inst_queue_writes     16192229                       # Number of integer instruction queue writes
system.switch_cpus.iq.iqInstsAdded           15631784                       # Number of instructions added to the IQ (excludes non-spec)
system.switch_cpus.iq.iqInstsIssued          15452456                       # Number of instructions issued
system.switch_cpus.iq.iqSquashedInstsExamined       560381                       # Number of squashed instructions iterated over during squash; mainly for profiling
system.switch_cpus.iq.iqSquashedInstsIssued          176                       # Number of squashed instructions issued
system.switch_cpus.iq.iqSquashedOperandsExamined       949205                       # Number of squashed operands that are examined and possibly removed from graph
system.switch_cpus.iq.issued_per_cycle::samples     11431107                       # Number of insts issued each cycle
system.switch_cpus.iq.issued_per_cycle::mean     1.351790                       # Number of insts issued each cycle
system.switch_cpus.iq.issued_per_cycle::stdev     1.968616                       # Number of insts issued each cycle
system.switch_cpus.iq.issued_per_cycle::underflows            0      0.00%      0.00% # Number of insts issued each cycle
system.switch_cpus.iq.issued_per_cycle::0      6810735     59.58%     59.58% # Number of insts issued each cycle
system.switch_cpus.iq.issued_per_cycle::1       590321      5.16%     64.74% # Number of insts issued each cycle
system.switch_cpus.iq.issued_per_cycle::2      1155066     10.10%     74.85% # Number of insts issued each cycle
system.switch_cpus.iq.issued_per_cycle::3       893279      7.81%     82.66% # Number of insts issued each cycle
system.switch_cpus.iq.issued_per_cycle::4       939457      8.22%     90.88% # Number of insts issued each cycle
system.switch_cpus.iq.issued_per_cycle::5       498072      4.36%     95.24% # Number of insts issued each cycle
system.switch_cpus.iq.issued_per_cycle::6       285098      2.49%     97.73% # Number of insts issued each cycle
system.switch_cpus.iq.issued_per_cycle::7       159242      1.39%     99.13% # Number of insts issued each cycle
system.switch_cpus.iq.issued_per_cycle::8        99837      0.87%    100.00% # Number of insts issued each cycle
system.switch_cpus.iq.issued_per_cycle::overflows            0      0.00%    100.00% # Number of insts issued each cycle
system.switch_cpus.iq.issued_per_cycle::min_value            0                       # Number of insts issued each cycle
system.switch_cpus.iq.issued_per_cycle::max_value            8                       # Number of insts issued each cycle
system.switch_cpus.iq.issued_per_cycle::total     11431107                       # Number of insts issued each cycle
system.switch_cpus.iq.rate                   1.351624                       # Inst issue rate
system.switch_cpus.iq.vec_alu_accesses              0                       # Number of vector alu accesses
system.switch_cpus.iq.vec_inst_queue_reads            0                       # Number of vector instruction queue reads
system.switch_cpus.iq.vec_inst_queue_wakeup_accesses            0                       # Number of vector instruction queue wakeup accesses
system.switch_cpus.iq.vec_inst_queue_writes            0                       # Number of vector instruction queue writes
system.switch_cpus.itb.rdAccesses                   0                       # TLB accesses on read requests
system.switch_cpus.itb.rdMisses                     0                       # TLB misses on read requests
system.switch_cpus.itb.wrAccesses             1165051                       # TLB accesses on write requests
system.switch_cpus.itb.wrMisses                     3                       # TLB misses on write requests
system.switch_cpus.memDep0.conflictingLoads       191762                       # Number of conflicting loads.
system.switch_cpus.memDep0.conflictingStores       303880                       # Number of conflicting stores.
system.switch_cpus.memDep0.insertedLoads      4477391                       # Number of loads inserted to the mem dependence unit.
system.switch_cpus.memDep0.insertedStores      1602324                       # Number of stores inserted to the mem dependence unit.
system.switch_cpus.misc_regfile_reads         6971894                       # number of misc regfile reads
system.switch_cpus.misc_regfile_writes              1                       # number of misc regfile writes
system.switch_cpus.numCycles                 11432512                       # number of cpu cycles simulated
system.switch_cpus.numWorkItemsCompleted            0                       # number of work items this cpu completed
system.switch_cpus.numWorkItemsStarted              0                       # number of work items this cpu started
system.switch_cpus.rename.BlockCycles         2620739                       # Number of cycles rename is blocking
system.switch_cpus.rename.CommittedMaps      21053214                       # Number of HB maps that are committed
system.switch_cpus.rename.IQFullEvents         246568                       # Number of times rename has blocked due to IQ full
system.switch_cpus.rename.IdleCycles          1096723                       # Number of cycles rename is idle
system.switch_cpus.rename.LQFullEvents          21225                       # Number of times rename has blocked due to LQ full
system.switch_cpus.rename.ROBFullEvents          4315                       # Number of times rename has blocked due to ROB full
system.switch_cpus.rename.RenameLookups      56187215                       # Number of register rename lookups that rename has made
system.switch_cpus.rename.RenamedInsts       15743406                       # Number of instructions processed by rename
system.switch_cpus.rename.RenamedOperands     21987058                       # Number of destination operands rename has renamed
system.switch_cpus.rename.RunCycles           1696919                       # Number of cycles rename is running
system.switch_cpus.rename.SQFullEvents        5449697                       # Number of times rename has blocked due to SQ full
system.switch_cpus.rename.SquashCycles          10602                       # Number of cycles rename is squashing
system.switch_cpus.rename.UnblockCycles       6006114                       # Number of cycles rename is unblocking
system.switch_cpus.rename.UndoneMaps           933777                       # Number of HB maps that are undone due to squashing
system.switch_cpus.rename.int_rename_lookups     32287505                       # Number of integer rename lookups
system.switch_cpus.rename.serializeStallCycles            0                       # count of cycles rename stalled for serializing inst
system.switch_cpus.rename.serializingInsts            0                       # count of serializing insts renamed
system.switch_cpus.rename.skidInsts           4979051                       # count of insts added to the skid buffer
system.switch_cpus.rename.tempSerializingInsts            0                       # count of temporary serializing insts renamed
system.switch_cpus.rob.rob_reads             25912710                       # The number of ROB reads
system.switch_cpus.rob.rob_writes            31341471                       # The number of ROB writes
system.switch_cpus.timesIdled                      13                       # Number of times that the entire CPU went into an idle state and unscheduled itself
system.tol2bus.snoop_filter.hit_multi_requests            0                       # Number of requests hitting in the snoop filter with multiple (>1) holders of the requested data.
system.tol2bus.snoop_filter.hit_multi_snoops            0                       # Number of snoops hitting in the snoop filter with multiple (>1) holders of the requested data.
system.tol2bus.snoop_filter.hit_single_requests        51645                       # Number of requests hitting in the snoop filter with a single holder of the requested data.
system.tol2bus.snoop_filter.hit_single_snoops          361                       # Number of snoops hitting in the snoop filter with a single holder of the requested data.
system.tol2bus.snoop_filter.tot_requests       103818                       # Total number of requests made to the snoop filter.
system.tol2bus.snoop_filter.tot_snoops            361                       # Total number of snoops made to the snoop filter.
system.membus.pwrStateResidencyTicks::UNDEFINED 9495792567994                       # Cumulative time (in ticks) in various power states
system.membus.trans_dist::ReadResp               2307                       # Transaction distribution
system.membus.trans_dist::WritebackDirty        25748                       # Transaction distribution
system.membus.trans_dist::CleanEvict             1482                       # Transaction distribution
system.membus.trans_dist::ReadExReq             29092                       # Transaction distribution
system.membus.trans_dist::ReadExResp            29092                       # Transaction distribution
system.membus.trans_dist::ReadSharedReq          2307                       # Transaction distribution
system.membus.pkt_count_system.l2.mem_side::system.mem_ctrls.port        90028                       # Packet count per connected master and slave (bytes)
system.membus.pkt_count_system.l2.mem_side::total        90028                       # Packet count per connected master and slave (bytes)
system.membus.pkt_count::total                  90028                       # Packet count per connected master and slave (bytes)
system.membus.pkt_size_system.l2.mem_side::system.mem_ctrls.port      3657408                       # Cumulative packet size per connected master and slave (bytes)
system.membus.pkt_size_system.l2.mem_side::total      3657408                       # Cumulative packet size per connected master and slave (bytes)
system.membus.pkt_size::total                 3657408                       # Cumulative packet size per connected master and slave (bytes)
system.membus.snoops                                0                       # Total snoops (count)
system.membus.snoopTraffic                          0                       # Total snoop traffic (bytes)
system.membus.snoop_fanout::samples             31399                       # Request fanout histogram
system.membus.snoop_fanout::mean                    0                       # Request fanout histogram
system.membus.snoop_fanout::stdev                   0                       # Request fanout histogram
system.membus.snoop_fanout::underflows              0      0.00%      0.00% # Request fanout histogram
system.membus.snoop_fanout::0                   31399    100.00%    100.00% # Request fanout histogram
system.membus.snoop_fanout::1                       0      0.00%    100.00% # Request fanout histogram
system.membus.snoop_fanout::overflows               0      0.00%    100.00% # Request fanout histogram
system.membus.snoop_fanout::min_value               0                       # Request fanout histogram
system.membus.snoop_fanout::max_value               0                       # Request fanout histogram
system.membus.snoop_fanout::total               31399                       # Request fanout histogram
system.membus.reqLayer2.occupancy           185859696                       # Layer occupancy (ticks)
system.membus.reqLayer2.utilization               5.8                       # Layer utilization (%)
system.membus.respLayer1.occupancy          163260780                       # Layer occupancy (ticks)
system.membus.respLayer1.utilization              5.1                       # Layer utilization (%)
system.switch_cpus.pwrStateResidencyTicks::OFF   3178248494                       # Cumulative time (in ticks) in various power states
system.switch_cpus.dtb.walker.pwrStateResidencyTicks::UNDEFINED 9495792567994                       # Cumulative time (in ticks) in various power states
system.switch_cpus.itb.walker.pwrStateResidencyTicks::UNDEFINED 9495792567994                       # Cumulative time (in ticks) in various power states
system.tol2bus.pwrStateResidencyTicks::UNDEFINED 9495792567994                       # Cumulative time (in ticks) in various power states
system.tol2bus.trans_dist::ReadResp             23081                       # Transaction distribution
system.tol2bus.trans_dist::WritebackDirty        55369                       # Transaction distribution
system.tol2bus.trans_dist::CleanEvict           23579                       # Transaction distribution
system.tol2bus.trans_dist::ReadExReq            29092                       # Transaction distribution
system.tol2bus.trans_dist::ReadExResp           29092                       # Transaction distribution
system.tol2bus.trans_dist::ReadCleanReq            16                       # Transaction distribution
system.tol2bus.trans_dist::ReadSharedReq        23065                       # Transaction distribution
system.tol2bus.pkt_count_system.cpu.icache.mem_side::system.l2.cpu_side           32                       # Packet count per connected master and slave (bytes)
system.tol2bus.pkt_count_system.cpu.dcache.mem_side::system.l2.cpu_side       155959                       # Packet count per connected master and slave (bytes)
system.tol2bus.pkt_count::total                155991                       # Packet count per connected master and slave (bytes)
system.tol2bus.pkt_size_system.cpu.icache.mem_side::system.l2.cpu_side         1024                       # Cumulative packet size per connected master and slave (bytes)
system.tol2bus.pkt_size_system.cpu.dcache.mem_side::system.l2.cpu_side      5233792                       # Cumulative packet size per connected master and slave (bytes)
system.tol2bus.pkt_size::total                5234816                       # Cumulative packet size per connected master and slave (bytes)
system.tol2bus.snoops                           27303                       # Total snoops (count)
system.tol2bus.snoopTraffic                   1647872                       # Total snoop traffic (bytes)
system.tol2bus.snoop_fanout::samples            79476                       # Request fanout histogram
system.tol2bus.snoop_fanout::mean            0.004542                       # Request fanout histogram
system.tol2bus.snoop_fanout::stdev           0.067243                       # Request fanout histogram
system.tol2bus.snoop_fanout::underflows             0      0.00%      0.00% # Request fanout histogram
system.tol2bus.snoop_fanout::0                  79115     99.55%     99.55% # Request fanout histogram
system.tol2bus.snoop_fanout::1                    361      0.45%    100.00% # Request fanout histogram
system.tol2bus.snoop_fanout::2                      0      0.00%    100.00% # Request fanout histogram
system.tol2bus.snoop_fanout::3                      0      0.00%    100.00% # Request fanout histogram
system.tol2bus.snoop_fanout::4                      0      0.00%    100.00% # Request fanout histogram
system.tol2bus.snoop_fanout::overflows              0      0.00%    100.00% # Request fanout histogram
system.tol2bus.snoop_fanout::min_value              0                       # Request fanout histogram
system.tol2bus.snoop_fanout::max_value              1                       # Request fanout histogram
system.tol2bus.snoop_fanout::total              79476                       # Request fanout histogram
system.tol2bus.reqLayer0.occupancy           45327622                       # Layer occupancy (ticks)
system.tol2bus.reqLayer0.utilization              1.4                       # Layer utilization (%)
system.tol2bus.respLayer1.occupancy          43492266                       # Layer occupancy (ticks)
system.tol2bus.respLayer1.utilization             1.4                       # Layer utilization (%)
system.tol2bus.respLayer0.occupancy             10842                       # Layer occupancy (ticks)
system.tol2bus.respLayer0.utilization             0.0                       # Layer utilization (%)
system.voltage_domain.voltage                       1                       # Voltage in Volts
system.clk_domain.clock                          1000                       # Clock period in ticks
system.l2.pwrStateResidencyTicks::UNDEFINED 9495792567994                       # Cumulative time (in ticks) in various power states
system.l2.demand_hits::.switch_cpus.data        20774                       # number of demand (read+write) hits
system.l2.demand_hits::total                    20774                       # number of demand (read+write) hits
system.l2.overall_hits::.switch_cpus.data        20774                       # number of overall hits
system.l2.overall_hits::total                   20774                       # number of overall hits
system.l2.demand_misses::.cpu.inst                  3                       # number of demand (read+write) misses
system.l2.demand_misses::.cpu.data                  8                       # number of demand (read+write) misses
system.l2.demand_misses::.switch_cpus.inst           13                       # number of demand (read+write) misses
system.l2.demand_misses::.switch_cpus.data        31375                       # number of demand (read+write) misses
system.l2.demand_misses::total                  31399                       # number of demand (read+write) misses
system.l2.overall_misses::.cpu.inst                 3                       # number of overall misses
system.l2.overall_misses::.cpu.data                 8                       # number of overall misses
system.l2.overall_misses::.switch_cpus.inst           13                       # number of overall misses
system.l2.overall_misses::.switch_cpus.data        31375                       # number of overall misses
system.l2.overall_misses::total                 31399                       # number of overall misses
system.l2.demand_miss_latency::.switch_cpus.inst       942420                       # number of demand (read+write) miss cycles
system.l2.demand_miss_latency::.switch_cpus.data   2068842918                       # number of demand (read+write) miss cycles
system.l2.demand_miss_latency::total       2069785338                       # number of demand (read+write) miss cycles
system.l2.overall_miss_latency::.switch_cpus.inst       942420                       # number of overall miss cycles
system.l2.overall_miss_latency::.switch_cpus.data   2068842918                       # number of overall miss cycles
system.l2.overall_miss_latency::total      2069785338                       # number of overall miss cycles
system.l2.demand_accesses::.cpu.inst                3                       # number of demand (read+write) accesses
system.l2.demand_accesses::.cpu.data                8                       # number of demand (read+write) accesses
system.l2.demand_accesses::.switch_cpus.inst           13                       # number of demand (read+write) accesses
system.l2.demand_accesses::.switch_cpus.data        52149                       # number of demand (read+write) accesses
system.l2.demand_accesses::total                52173                       # number of demand (read+write) accesses
system.l2.overall_accesses::.cpu.inst               3                       # number of overall (read+write) accesses
system.l2.overall_accesses::.cpu.data               8                       # number of overall (read+write) accesses
system.l2.overall_accesses::.switch_cpus.inst           13                       # number of overall (read+write) accesses
system.l2.overall_accesses::.switch_cpus.data        52149                       # number of overall (read+write) accesses
system.l2.overall_accesses::total               52173                       # number of overall (read+write) accesses
system.l2.demand_miss_rate::.cpu.inst               1                       # miss rate for demand accesses
system.l2.demand_miss_rate::.cpu.data               1                       # miss rate for demand accesses
system.l2.demand_miss_rate::.switch_cpus.inst            1                       # miss rate for demand accesses
system.l2.demand_miss_rate::.switch_cpus.data     0.601641                       # miss rate for demand accesses
system.l2.demand_miss_rate::total            0.601825                       # miss rate for demand accesses
system.l2.overall_miss_rate::.cpu.inst              1                       # miss rate for overall accesses
system.l2.overall_miss_rate::.cpu.data              1                       # miss rate for overall accesses
system.l2.overall_miss_rate::.switch_cpus.inst            1                       # miss rate for overall accesses
system.l2.overall_miss_rate::.switch_cpus.data     0.601641                       # miss rate for overall accesses
system.l2.overall_miss_rate::total           0.601825                       # miss rate for overall accesses
system.l2.demand_avg_miss_latency::.switch_cpus.inst 72493.846154                       # average overall miss latency
system.l2.demand_avg_miss_latency::.switch_cpus.data 65939.216510                       # average overall miss latency
system.l2.demand_avg_miss_latency::total 65918.829835                       # average overall miss latency
system.l2.overall_avg_miss_latency::.switch_cpus.inst 72493.846154                       # average overall miss latency
system.l2.overall_avg_miss_latency::.switch_cpus.data 65939.216510                       # average overall miss latency
system.l2.overall_avg_miss_latency::total 65918.829835                       # average overall miss latency
system.l2.blocked_cycles::no_mshrs                  0                       # number of cycles access was blocked
system.l2.blocked_cycles::no_targets                0                       # number of cycles access was blocked
system.l2.blocked::no_mshrs                         0                       # number of cycles access was blocked
system.l2.blocked::no_targets                       0                       # number of cycles access was blocked
system.l2.avg_blocked_cycles::no_mshrs            nan                       # average number of cycles each access was blocked
system.l2.avg_blocked_cycles::no_targets          nan                       # average number of cycles each access was blocked
system.l2.writebacks::.writebacks               25748                       # number of writebacks
system.l2.writebacks::total                     25748                       # number of writebacks
system.l2.demand_mshr_misses::.switch_cpus.inst           13                       # number of demand (read+write) MSHR misses
system.l2.demand_mshr_misses::.switch_cpus.data        31375                       # number of demand (read+write) MSHR misses
system.l2.demand_mshr_misses::total             31388                       # number of demand (read+write) MSHR misses
system.l2.overall_mshr_misses::.switch_cpus.inst           13                       # number of overall MSHR misses
system.l2.overall_mshr_misses::.switch_cpus.data        31375                       # number of overall MSHR misses
system.l2.overall_mshr_misses::total            31388                       # number of overall MSHR misses
system.l2.demand_mshr_miss_latency::.switch_cpus.inst       868672                       # number of demand (read+write) MSHR miss cycles
system.l2.demand_mshr_miss_latency::.switch_cpus.data   1889997644                       # number of demand (read+write) MSHR miss cycles
system.l2.demand_mshr_miss_latency::total   1890866316                       # number of demand (read+write) MSHR miss cycles
system.l2.overall_mshr_miss_latency::.switch_cpus.inst       868672                       # number of overall MSHR miss cycles
system.l2.overall_mshr_miss_latency::.switch_cpus.data   1889997644                       # number of overall MSHR miss cycles
system.l2.overall_mshr_miss_latency::total   1890866316                       # number of overall MSHR miss cycles
system.l2.demand_mshr_miss_rate::.switch_cpus.inst            1                       # mshr miss rate for demand accesses
system.l2.demand_mshr_miss_rate::.switch_cpus.data     0.601641                       # mshr miss rate for demand accesses
system.l2.demand_mshr_miss_rate::total       0.601614                       # mshr miss rate for demand accesses
system.l2.overall_mshr_miss_rate::.switch_cpus.inst            1                       # mshr miss rate for overall accesses
system.l2.overall_mshr_miss_rate::.switch_cpus.data     0.601641                       # mshr miss rate for overall accesses
system.l2.overall_mshr_miss_rate::total      0.601614                       # mshr miss rate for overall accesses
system.l2.demand_avg_mshr_miss_latency::.switch_cpus.inst 66820.923077                       # average overall mshr miss latency
system.l2.demand_avg_mshr_miss_latency::.switch_cpus.data 60238.968733                       # average overall mshr miss latency
system.l2.demand_avg_mshr_miss_latency::total 60241.694788                       # average overall mshr miss latency
system.l2.overall_avg_mshr_miss_latency::.switch_cpus.inst 66820.923077                       # average overall mshr miss latency
system.l2.overall_avg_mshr_miss_latency::.switch_cpus.data 60238.968733                       # average overall mshr miss latency
system.l2.overall_avg_mshr_miss_latency::total 60241.694788                       # average overall mshr miss latency
system.l2.replacements                          27303                       # number of replacements
system.l2.csize                                     0                       # Cache sizes in total
system.l2.WritebackDirty_hits::.writebacks        29621                       # number of WritebackDirty hits
system.l2.WritebackDirty_hits::total            29621                       # number of WritebackDirty hits
system.l2.WritebackDirty_accesses::.writebacks        29621                       # number of WritebackDirty accesses(hits+misses)
system.l2.WritebackDirty_accesses::total        29621                       # number of WritebackDirty accesses(hits+misses)
system.l2.CleanEvict_mshr_misses::.writebacks          288                       # number of CleanEvict MSHR misses
system.l2.CleanEvict_mshr_misses::total           288                       # number of CleanEvict MSHR misses
system.l2.CleanEvict_mshr_miss_rate::.writebacks          inf                       # mshr miss rate for CleanEvict accesses
system.l2.CleanEvict_mshr_miss_rate::total          inf                       # mshr miss rate for CleanEvict accesses
system.l2.ReadExReq_misses::.cpu.data               1                       # number of ReadExReq misses
system.l2.ReadExReq_misses::.switch_cpus.data        29091                       # number of ReadExReq misses
system.l2.ReadExReq_misses::total               29092                       # number of ReadExReq misses
system.l2.ReadExReq_miss_latency::.switch_cpus.data   1904092890                       # number of ReadExReq miss cycles
system.l2.ReadExReq_miss_latency::total    1904092890                       # number of ReadExReq miss cycles
system.l2.ReadExReq_accesses::.cpu.data             1                       # number of ReadExReq accesses(hits+misses)
system.l2.ReadExReq_accesses::.switch_cpus.data        29091                       # number of ReadExReq accesses(hits+misses)
system.l2.ReadExReq_accesses::total             29092                       # number of ReadExReq accesses(hits+misses)
system.l2.ReadExReq_miss_rate::.cpu.data            1                       # miss rate for ReadExReq accesses
system.l2.ReadExReq_miss_rate::.switch_cpus.data            1                       # miss rate for ReadExReq accesses
system.l2.ReadExReq_miss_rate::total                1                       # miss rate for ReadExReq accesses
system.l2.ReadExReq_avg_miss_latency::.switch_cpus.data 65452.988553                       # average ReadExReq miss latency
system.l2.ReadExReq_avg_miss_latency::total 65450.738691                       # average ReadExReq miss latency
system.l2.ReadExReq_mshr_misses::.switch_cpus.data        29091                       # number of ReadExReq MSHR misses
system.l2.ReadExReq_mshr_misses::total          29091                       # number of ReadExReq MSHR misses
system.l2.ReadExReq_mshr_miss_latency::.switch_cpus.data   1738278578                       # number of ReadExReq MSHR miss cycles
system.l2.ReadExReq_mshr_miss_latency::total   1738278578                       # number of ReadExReq MSHR miss cycles
system.l2.ReadExReq_mshr_miss_rate::.switch_cpus.data            1                       # mshr miss rate for ReadExReq accesses
system.l2.ReadExReq_mshr_miss_rate::total     0.999966                       # mshr miss rate for ReadExReq accesses
system.l2.ReadExReq_avg_mshr_miss_latency::.switch_cpus.data 59753.139390                       # average ReadExReq mshr miss latency
system.l2.ReadExReq_avg_mshr_miss_latency::total 59753.139390                       # average ReadExReq mshr miss latency
system.l2.ReadCleanReq_misses::.cpu.inst            3                       # number of ReadCleanReq misses
system.l2.ReadCleanReq_misses::.switch_cpus.inst           13                       # number of ReadCleanReq misses
system.l2.ReadCleanReq_misses::total               16                       # number of ReadCleanReq misses
system.l2.ReadCleanReq_miss_latency::.switch_cpus.inst       942420                       # number of ReadCleanReq miss cycles
system.l2.ReadCleanReq_miss_latency::total       942420                       # number of ReadCleanReq miss cycles
system.l2.ReadCleanReq_accesses::.cpu.inst            3                       # number of ReadCleanReq accesses(hits+misses)
system.l2.ReadCleanReq_accesses::.switch_cpus.inst           13                       # number of ReadCleanReq accesses(hits+misses)
system.l2.ReadCleanReq_accesses::total             16                       # number of ReadCleanReq accesses(hits+misses)
system.l2.ReadCleanReq_miss_rate::.cpu.inst            1                       # miss rate for ReadCleanReq accesses
system.l2.ReadCleanReq_miss_rate::.switch_cpus.inst            1                       # miss rate for ReadCleanReq accesses
system.l2.ReadCleanReq_miss_rate::total             1                       # miss rate for ReadCleanReq accesses
system.l2.ReadCleanReq_avg_miss_latency::.switch_cpus.inst 72493.846154                       # average ReadCleanReq miss latency
system.l2.ReadCleanReq_avg_miss_latency::total 58901.250000                       # average ReadCleanReq miss latency
system.l2.ReadCleanReq_mshr_misses::.switch_cpus.inst           13                       # number of ReadCleanReq MSHR misses
system.l2.ReadCleanReq_mshr_misses::total           13                       # number of ReadCleanReq MSHR misses
system.l2.ReadCleanReq_mshr_miss_latency::.switch_cpus.inst       868672                       # number of ReadCleanReq MSHR miss cycles
system.l2.ReadCleanReq_mshr_miss_latency::total       868672                       # number of ReadCleanReq MSHR miss cycles
system.l2.ReadCleanReq_mshr_miss_rate::.switch_cpus.inst            1                       # mshr miss rate for ReadCleanReq accesses
system.l2.ReadCleanReq_mshr_miss_rate::total     0.812500                       # mshr miss rate for ReadCleanReq accesses
[...]
system.cpu.itb_walker_cache.blocked_cycles::no_targets            0                       # number of cycles access was blocked
system.cpu.itb_walker_cache.blocked::no_mshrs            0                       # number of cycles access was blocked
system.cpu.itb_walker_cache.blocked::no_targets            0                       # number of cycles access was blocked
system.cpu.itb_walker_cache.avg_blocked_cycles::no_mshrs          nan                       # average number of cycles each access was blocked
system.cpu.itb_walker_cache.avg_blocked_cycles::no_targets          nan                       # average number of cycles each access was blocked
system.cpu.itb_walker_cache.replacements            0                       # number of replacements
system.cpu.itb_walker_cache.csize                   0                       # Cache sizes in total
system.cpu.itb_walker_cache.tags.pwrStateResidencyTicks::UNDEFINED 9495792567994                       # Cumulative time (in ticks) in various power states
system.cpu.itb_walker_cache.tags.tagsinuse            0                       # Cycle average of tags in use
system.cpu.itb_walker_cache.tags.total_refs            0                       # Total number of references to valid blocks.
system.cpu.itb_walker_cache.tags.sampled_refs            0                       # Sample count of references to valid blocks.
system.cpu.itb_walker_cache.tags.avg_refs          nan                       # Average number of references to valid blocks.
system.cpu.itb_walker_cache.tags.warmup_cycle            0                       # Cycle when the warmup percentage was hit.
system.cpu.itb_walker_cache.tags.tag_accesses            0                       # Number of tag accesses
system.cpu.itb_walker_cache.tags.data_accesses            0                       # Number of data accesses
system.cpu.itb.walker.pwrStateResidencyTicks::UNDEFINED 9495792567994                       # Cumulative time (in ticks) in various power states
system.cpu.dtb_walker_cache.pwrStateResidencyTicks::UNDEFINED 9495792567994                       # Cumulative time (in ticks) in various power states
system.cpu.dtb_walker_cache.blocked_cycles::no_mshrs            0                       # number of cycles access was blocked
system.cpu.dtb_walker_cache.blocked_cycles::no_targets            0                       # number of cycles access was blocked
system.cpu.dtb_walker_cache.blocked::no_mshrs            0                       # number of cycles access was blocked
system.cpu.dtb_walker_cache.blocked::no_targets            0                       # number of cycles access was blocked
system.cpu.dtb_walker_cache.avg_blocked_cycles::no_mshrs          nan                       # average number of cycles each access was blocked
system.cpu.dtb_walker_cache.avg_blocked_cycles::no_targets          nan                       # average number of cycles each access was blocked
system.cpu.dtb_walker_cache.replacements            0                       # number of replacements
system.cpu.dtb_walker_cache.csize                   0                       # Cache sizes in total
system.cpu.dtb_walker_cache.tags.pwrStateResidencyTicks::UNDEFINED 9495792567994                       # Cumulative time (in ticks) in various power states
system.cpu.dtb_walker_cache.tags.tagsinuse            0                       # Cycle average of tags in use
system.cpu.dtb_walker_cache.tags.total_refs            0                       # Total number of references to valid blocks.
system.cpu.dtb_walker_cache.tags.sampled_refs            0                       # Sample count of references to valid blocks.
system.cpu.dtb_walker_cache.tags.avg_refs          nan                       # Average number of references to valid blocks.
system.cpu.dtb_walker_cache.tags.warmup_cycle            0                       # Cycle when the warmup percentage was hit.
system.cpu.dtb_walker_cache.tags.tag_accesses            0                       # Number of tag accesses
system.cpu.dtb_walker_cache.tags.data_accesses            0                       # Number of data accesses
system.cpu.dcache.pwrStateResidencyTicks::UNDEFINED 9495792567994                       # Cumulative time (in ticks) in various power states
system.cpu.dcache.demand_hits::.cpu.data            5                       # number of demand (read+write) hits
system.cpu.dcache.demand_hits::.switch_cpus.data      5631905                       # number of demand (read+write) hits
system.cpu.dcache.demand_hits::total          5631910                       # number of demand (read+write) hits
system.cpu.dcache.overall_hits::.cpu.data            5                       # number of overall hits
system.cpu.dcache.overall_hits::.switch_cpus.data      5631905                       # number of overall hits
system.cpu.dcache.overall_hits::total         5631910                       # number of overall hits
system.cpu.dcache.demand_misses::.cpu.data            8                       # number of demand (read+write) misses
system.cpu.dcache.demand_misses::.switch_cpus.data        63927                       # number of demand (read+write) misses
system.cpu.dcache.demand_misses::total          63935                       # number of demand (read+write) misses
system.cpu.dcache.overall_misses::.cpu.data            8                       # number of overall misses
system.cpu.dcache.overall_misses::.switch_cpus.data        63927                       # number of overall misses
system.cpu.dcache.overall_misses::total         63935                       # number of overall misses
system.cpu.dcache.demand_miss_latency::.switch_cpus.data   2513167537                       # number of demand (read+write) miss cycles
system.cpu.dcache.demand_miss_latency::total   2513167537                       # number of demand (read+write) miss cycles
system.cpu.dcache.overall_miss_latency::.switch_cpus.data   2513167537                       # number of overall miss cycles
system.cpu.dcache.overall_miss_latency::total   2513167537                       # number of overall miss cycles
system.cpu.dcache.demand_accesses::.cpu.data           13                       # number of demand (read+write) accesses
system.cpu.dcache.demand_accesses::.switch_cpus.data      5695832                       # number of demand (read+write) accesses
system.cpu.dcache.demand_accesses::total      5695845                       # number of demand (read+write) accesses
system.cpu.dcache.overall_accesses::.cpu.data           13                       # number of overall (read+write) accesses
system.cpu.dcache.overall_accesses::.switch_cpus.data      5695832                       # number of overall (read+write) accesses
system.cpu.dcache.overall_accesses::total      5695845                       # number of overall (read+write) accesses
system.cpu.dcache.demand_miss_rate::.cpu.data     0.615385                       # miss rate for demand accesses
system.cpu.dcache.demand_miss_rate::.switch_cpus.data     0.011223                       # miss rate for demand accesses
system.cpu.dcache.demand_miss_rate::total     0.011225                       # miss rate for demand accesses
system.cpu.dcache.overall_miss_rate::.cpu.data     0.615385                       # miss rate for overall accesses
system.cpu.dcache.overall_miss_rate::.switch_cpus.data     0.011223                       # miss rate for overall accesses
system.cpu.dcache.overall_miss_rate::total     0.011225                       # miss rate for overall accesses
system.cpu.dcache.demand_avg_miss_latency::.switch_cpus.data 39313.084252                       # average overall miss latency
system.cpu.dcache.demand_avg_miss_latency::total 39308.165121                       # average overall miss latency
system.cpu.dcache.overall_avg_miss_latency::.switch_cpus.data 39313.084252                       # average overall miss latency
system.cpu.dcache.overall_avg_miss_latency::total 39308.165121                       # average overall miss latency
system.cpu.dcache.blocked_cycles::no_mshrs         7012                       # number of cycles access was blocked
system.cpu.dcache.blocked_cycles::no_targets          161                       # number of cycles access was blocked
system.cpu.dcache.blocked::no_mshrs               210                       # number of cycles access was blocked
system.cpu.dcache.blocked::no_targets               1                       # number of cycles access was blocked
system.cpu.dcache.avg_blocked_cycles::no_mshrs    33.390476                       # average number of cycles each access was blocked
system.cpu.dcache.avg_blocked_cycles::no_targets          161                       # average number of cycles each access was blocked
system.cpu.dcache.writebacks::.writebacks        29621                       # number of writebacks
system.cpu.dcache.writebacks::total             29621                       # number of writebacks
system.cpu.dcache.demand_mshr_hits::.switch_cpus.data        11777                       # number of demand (read+write) MSHR hits
system.cpu.dcache.demand_mshr_hits::total        11777                       # number of demand (read+write) MSHR hits
system.cpu.dcache.overall_mshr_hits::.switch_cpus.data        11777                       # number of overall MSHR hits
system.cpu.dcache.overall_mshr_hits::total        11777                       # number of overall MSHR hits
system.cpu.dcache.demand_mshr_misses::.switch_cpus.data        52150                       # number of demand (read+write) MSHR misses
system.cpu.dcache.demand_mshr_misses::total        52150                       # number of demand (read+write) MSHR misses
system.cpu.dcache.overall_mshr_misses::.switch_cpus.data        52150                       # number of overall MSHR misses
system.cpu.dcache.overall_mshr_misses::total        52150                       # number of overall MSHR misses
system.cpu.dcache.demand_mshr_miss_latency::.switch_cpus.data   2234183417                       # number of demand (read+write) MSHR miss cycles
system.cpu.dcache.demand_mshr_miss_latency::total   2234183417                       # number of demand (read+write) MSHR miss cycles
system.cpu.dcache.overall_mshr_miss_latency::.switch_cpus.data   2234183417                       # number of overall MSHR miss cycles
system.cpu.dcache.overall_mshr_miss_latency::total   2234183417                       # number of overall MSHR miss cycles
system.cpu.dcache.demand_mshr_miss_rate::.switch_cpus.data     0.009156                       # mshr miss rate for demand accesses
system.cpu.dcache.demand_mshr_miss_rate::total     0.009156                       # mshr miss rate for demand accesses
system.cpu.dcache.overall_mshr_miss_rate::.switch_cpus.data     0.009156                       # mshr miss rate for overall accesses
system.cpu.dcache.overall_mshr_miss_rate::total     0.009156                       # mshr miss rate for overall accesses
system.cpu.dcache.demand_avg_mshr_miss_latency::.switch_cpus.data 42841.484506                       # average overall mshr miss latency
system.cpu.dcache.demand_avg_mshr_miss_latency::total 42841.484506                       # average overall mshr miss latency
system.cpu.dcache.overall_avg_mshr_miss_latency::.switch_cpus.data 42841.484506                       # average overall mshr miss latency
system.cpu.dcache.overall_avg_mshr_miss_latency::total 42841.484506                       # average overall mshr miss latency
system.cpu.dcache.replacements                  51645                       # number of replacements
system.cpu.dcache.csize                      21786396                       # Cache sizes in total
system.cpu.dcache.ReadReq_hits::.cpu.data            4                       # number of ReadReq hits
system.cpu.dcache.ReadReq_hits::.switch_cpus.data      4119998                       # number of ReadReq hits
system.cpu.dcache.ReadReq_hits::total         4120002                       # number of ReadReq hits
system.cpu.dcache.ReadReq_misses::.cpu.data            7                       # number of ReadReq misses
system.cpu.dcache.ReadReq_misses::.switch_cpus.data        34835                       # number of ReadReq misses
system.cpu.dcache.ReadReq_misses::total         34842                       # number of ReadReq misses
system.cpu.dcache.ReadReq_miss_latency::.switch_cpus.data    568575886                       # number of ReadReq miss cycles
system.cpu.dcache.ReadReq_miss_latency::total    568575886                       # number of ReadReq miss cycles
system.cpu.dcache.ReadReq_accesses::.cpu.data           11                       # number of ReadReq accesses(hits+misses)
system.cpu.dcache.ReadReq_accesses::.switch_cpus.data      4154833                       # number of ReadReq accesses(hits+misses)
system.cpu.dcache.ReadReq_accesses::total      4154844                       # number of ReadReq accesses(hits+misses)
system.cpu.dcache.ReadReq_miss_rate::.cpu.data     0.636364                       # miss rate for ReadReq accesses
system.cpu.dcache.ReadReq_miss_rate::.switch_cpus.data     0.008384                       # miss rate for ReadReq accesses
system.cpu.dcache.ReadReq_miss_rate::total     0.008386                       # miss rate for ReadReq accesses
system.cpu.dcache.ReadReq_avg_miss_latency::.switch_cpus.data 16321.971753                       # average ReadReq miss latency
system.cpu.dcache.ReadReq_avg_miss_latency::total 16318.692555                       # average ReadReq miss latency
system.cpu.dcache.ReadReq_mshr_hits::.switch_cpus.data        11777                       # number of ReadReq MSHR hits
system.cpu.dcache.ReadReq_mshr_hits::total        11777                       # number of ReadReq MSHR hits
system.cpu.dcache.ReadReq_mshr_misses::.switch_cpus.data        23058                       # number of ReadReq MSHR misses
system.cpu.dcache.ReadReq_mshr_misses::total        23058                       # number of ReadReq MSHR misses
system.cpu.dcache.ReadReq_mshr_miss_latency::.switch_cpus.data    305766362                       # number of ReadReq MSHR miss cycles
system.cpu.dcache.ReadReq_mshr_miss_latency::total    305766362                       # number of ReadReq MSHR miss cycles
system.cpu.dcache.ReadReq_mshr_miss_rate::.switch_cpus.data     0.005550                       # mshr miss rate for ReadReq accesses
system.cpu.dcache.ReadReq_mshr_miss_rate::total     0.005550                       # mshr miss rate for ReadReq accesses
system.cpu.dcache.ReadReq_avg_mshr_miss_latency::.switch_cpus.data 13260.749501                       # average ReadReq mshr miss latency
system.cpu.dcache.ReadReq_avg_mshr_miss_latency::total 13260.749501                       # average ReadReq mshr miss latency
system.cpu.dcache.WriteReq_hits::.cpu.data            1                       # number of WriteReq hits
system.cpu.dcache.WriteReq_hits::.switch_cpus.data      1511907                       # number of WriteReq hits
system.cpu.dcache.WriteReq_hits::total        1511908                       # number of WriteReq hits
system.cpu.dcache.WriteReq_misses::.cpu.data            1                       # number of WriteReq misses
system.cpu.dcache.WriteReq_misses::.switch_cpus.data        29092                       # number of WriteReq misses
system.cpu.dcache.WriteReq_misses::total        29093                       # number of WriteReq misses
system.cpu.dcache.WriteReq_miss_latency::.switch_cpus.data   1944591651                       # number of WriteReq miss cycles
system.cpu.dcache.WriteReq_miss_latency::total   1944591651                       # number of WriteReq miss cycles
system.cpu.dcache.WriteReq_accesses::.cpu.data            2                       # number of WriteReq accesses(hits+misses)
system.cpu.dcache.WriteReq_accesses::.switch_cpus.data      1540999                       # number of WriteReq accesses(hits+misses)
system.cpu.dcache.WriteReq_accesses::total      1541001                       # number of WriteReq accesses(hits+misses)
system.cpu.dcache.WriteReq_miss_rate::.cpu.data     0.500000                       # miss rate for WriteReq accesses
system.cpu.dcache.WriteReq_miss_rate::.switch_cpus.data     0.018879                       # miss rate for WriteReq accesses
system.cpu.dcache.WriteReq_miss_rate::total     0.018879                       # miss rate for WriteReq accesses
system.cpu.dcache.WriteReq_avg_miss_latency::.switch_cpus.data 66842.831397                       # average WriteReq miss latency
system.cpu.dcache.WriteReq_avg_miss_latency::total 66840.533840                       # average WriteReq miss latency
system.cpu.dcache.WriteReq_mshr_misses::.switch_cpus.data        29092                       # number of WriteReq MSHR misses
system.cpu.dcache.WriteReq_mshr_misses::total        29092                       # number of WriteReq MSHR misses
system.cpu.dcache.WriteReq_mshr_miss_latency::.switch_cpus.data   1928417055                       # number of WriteReq MSHR miss cycles
system.cpu.dcache.WriteReq_mshr_miss_latency::total   1928417055                       # number of WriteReq MSHR miss cycles
system.cpu.dcache.WriteReq_mshr_miss_rate::.switch_cpus.data     0.018879                       # mshr miss rate for WriteReq accesses
system.cpu.dcache.WriteReq_mshr_miss_rate::total     0.018879                       # mshr miss rate for WriteReq accesses
system.cpu.dcache.WriteReq_avg_mshr_miss_latency::.switch_cpus.data 66286.850509                       # average WriteReq mshr miss latency
system.cpu.dcache.WriteReq_avg_mshr_miss_latency::total 66286.850509                       # average WriteReq mshr miss latency
system.cpu.dcache.tags.pwrStateResidencyTicks::UNDEFINED 9495792567994                       # Cumulative time (in ticks) in various power states
system.cpu.dcache.tags.tagsinuse             0.170775                       # Cycle average of tags in use
system.cpu.dcache.tags.total_refs             5684067                       # Total number of references to valid blocks.
system.cpu.dcache.tags.sampled_refs             52157                       # Sample count of references to valid blocks.
system.cpu.dcache.tags.avg_refs            108.979945                       # Average number of references to valid blocks.
system.cpu.dcache.tags.warmup_cycle      9492614319928                       # Cycle when the warmup percentage was hit.
system.cpu.dcache.tags.occ_blocks::.cpu.data     0.000705                       # Average occupied blocks per requestor
system.cpu.dcache.tags.occ_blocks::.switch_cpus.data     0.170071                       # Average occupied blocks per requestor
system.cpu.dcache.tags.occ_percent::.cpu.data     0.000001                       # Average percentage of cache occupancy
system.cpu.dcache.tags.occ_percent::.switch_cpus.data     0.000332                       # Average percentage of cache occupancy
system.cpu.dcache.tags.occ_percent::total     0.000334                       # Average percentage of cache occupancy
system.cpu.dcache.tags.occ_task_id_blocks::1024          512                       # Occupied blocks per task id
system.cpu.dcache.tags.age_task_id_blocks_1024::0          147                       # Occupied blocks per task id
system.cpu.dcache.tags.age_task_id_blocks_1024::1          243                       # Occupied blocks per task id
system.cpu.dcache.tags.age_task_id_blocks_1024::2           78                       # Occupied blocks per task id
system.cpu.dcache.tags.age_task_id_blocks_1024::3           44                       # Occupied blocks per task id
system.cpu.dcache.tags.occ_task_id_percent::1024            1                       # Percentage of cache occupancy per task id
system.cpu.dcache.tags.tag_accesses          45618917                       # Number of tag accesses
system.cpu.dcache.tags.data_accesses         45618917                       # Number of data accesses

---------- End Simulation Statistics   ----------
