
---------- Begin Simulation Statistics ----------
final_tick                               8854995037808                       # Number of ticks from beginning of simulation (restored from checkpoints and never reset)
host_inst_rate                                  70668                       # Simulator instruction rate (inst/s)
host_mem_usage                               16992532                       # Number of bytes of host memory used
host_op_rate                                    96605                       # Simulator op (including micro ops) rate (op/s)
host_seconds                                   141.51                       # Real time elapsed on the host
host_tick_rate                              129713979                       # Simulator tick rate (ticks/s)
sim_freq                                 1000000000000                       # Frequency of simulated ticks
sim_insts                                    10000024                       # Number of instructions simulated
sim_ops                                      13670358                       # Number of ops (including micro ops) simulated
sim_seconds                                  0.018356                       # Number of seconds simulated
sim_ticks                                 18355513308                       # Number of ticks simulated
system.cpu.committedInsts                          22                       # Number of instructions committed
system.cpu.committedOps                            25                       # Number of ops (including micro ops) committed
system.cpu.dtb.rdAccesses                           1                       # TLB accesses on read requests
system.cpu.dtb.rdMisses                             0                       # TLB misses on read requests
system.cpu.dtb.wrAccesses                           0                       # TLB accesses on write requests
system.cpu.dtb.wrMisses                             0                       # TLB misses on write requests
system.cpu.idle_fraction                            0                       # Percentage of idle cycles
system.cpu.itb.rdAccesses                           0                       # TLB accesses on read requests
system.cpu.itb.rdMisses                             0                       # TLB misses on read requests
system.cpu.itb.wrAccesses                          33                       # TLB accesses on write requests
system.cpu.itb.wrMisses                             0                       # TLB misses on write requests
system.cpu.not_idle_fraction                        1                       # Percentage of non-idle cycles
system.cpu.numCycles                               36                       # number of cpu cycles simulated
system.cpu.numWorkItemsCompleted                    0                       # number of work items this cpu completed
system.cpu.numWorkItemsStarted                      0                       # number of work items this cpu started
system.cpu.num_busy_cycles                         36                       # Number of busy cycles
system.cpu.num_conditional_control_insts            0                       # number of instructions that are conditional controls
system.cpu.num_fp_alu_accesses                     25                       # Number of float alu accesses
system.cpu.num_fp_insts                            25                       # number of float instructions
system.cpu.num_fp_register_reads                   68                       # number of times the floating registers were read
system.cpu.num_fp_register_writes                  25                       # number of times the floating registers were written
system.cpu.num_func_calls                           0                       # number of times a function call or return occured
system.cpu.num_idle_cycles                          0                       # Number of idle cycles
system.cpu.num_int_alu_accesses                     1                       # Number of integer alu accesses
system.cpu.num_int_insts                            1                       # number of integer instructions
system.cpu.num_int_register_reads                   3                       # number of times the integer registers were read
system.cpu.num_int_register_writes                  0                       # number of times the integer registers were written
system.cpu.num_load_insts                           1                       # Number of load instructions
system.cpu.num_mem_refs                             1                       # number of memory refs
system.cpu.num_store_insts                          0                       # Number of store instructions
system.cpu.num_vec_alu_accesses                     0                       # Number of vector alu accesses
system.cpu.num_vec_insts                            0                       # number of vector instructions
system.cpu.num_vec_register_reads                   0                       # number of times the vector registers were read
system.cpu.num_vec_register_writes                  0                       # number of times the vector registers were written
system.cpu.op_class::No_OpClass                     0      0.00%      0.00% # Class of executed instruction
system.cpu.op_class::IntAlu                         4     16.00%     16.00% # Class of executed instruction
system.cpu.op_class::IntMult                        0      0.00%     16.00% # Class of executed instruction
system.cpu.op_class::IntDiv                         0      0.00%     16.00% # Class of executed instruction
system.cpu.op_class::FloatAdd                       0      0.00%     16.00% # Class of executed instruction
system.cpu.op_class::FloatCmp                       0      0.00%     16.00% # Class of executed instruction
system.cpu.op_class::FloatCvt                       0      0.00%     16.00% # Class of executed instruction
system.cpu.op_class::FloatMult                      0      0.00%     16.00% # Class of executed instruction
system.cpu.op_class::FloatMultAcc                   0      0.00%     16.00% # Class of executed instruction
system.cpu.op_class::FloatDiv                       0      0.00%     16.00% # Class of executed instruction
system.cpu.op_class::FloatMisc                      0      0.00%     16.00% # Class of executed instruction
system.cpu.op_class::FloatSqrt                      0      0.00%     16.00% # Class of executed instruction
system.cpu.op_class::SimdAdd                        0      0.00%     16.00% # Class of executed instruction
system.cpu.op_class::SimdAddAcc                     0      0.00%     16.00% # Class of executed instruction
system.cpu.op_class::SimdAlu                        0      0.00%     16.00% # Class of executed instruction
system.cpu.op_class::SimdCmp                        0      0.00%     16.00% # Class of executed instruction
system.cpu.op_class::SimdCvt                        0      0.00%     16.00% # Class of executed instruction
system.cpu.op_class::SimdMisc                       0      0.00%     16.00% # Class of executed instruction
system.cpu.op_class::SimdMult                       0      0.00%     16.00% # Class of executed instruction
system.cpu.op_class::SimdMultAcc                    0      0.00%     16.00% # Class of executed instruction
system.cpu.op_class::SimdShift                      0      0.00%     16.00% # Class of executed instruction
system.cpu.op_class::SimdShiftAcc                   0      0.00%     16.00% # Class of executed instruction
system.cpu.op_class::SimdDiv                        0      0.00%     16.00% # Class of executed instruction
system.cpu.op_class::SimdSqrt                       0      0.00%     16.00% # Class of executed instruction
system.cpu.op_class::SimdFloatAdd                  17     68.00%     84.00% # Class of executed instruction
system.cpu.op_class::SimdFloatAlu                   0      0.00%     84.00% # Class of executed instruction
system.cpu.op_class::SimdFloatCmp                   0      0.00%     84.00% # Class of executed instruction
system.cpu.op_class::SimdFloatCvt                   0      0.00%     84.00% # Class of executed instruction
system.cpu.op_class::SimdFloatDiv                   3     12.00%     96.00% # Class of executed instruction
system.cpu.op_class::SimdFloatMisc                  0      0.00%     96.00% # Class of executed instruction
system.cpu.op_class::SimdFloatMult                  0      0.00%     96.00% # Class of executed instruction
system.cpu.op_class::SimdFloatMultAcc               0      0.00%     96.00% # Class of executed instruction
system.cpu.op_class::SimdFloatSqrt                  0      0.00%     96.00% # Class of executed instruction
system.cpu.op_class::SimdReduceAdd                  0      0.00%     96.00% # Class of executed instruction
system.cpu.op_class::SimdReduceAlu                  0      0.00%     96.00% # Class of executed instruction
system.cpu.op_class::SimdReduceCmp                  0      0.00%     96.00% # Class of executed instruction
system.cpu.op_class::SimdFloatReduceAdd             0      0.00%     96.00% # Class of executed instruction
system.cpu.op_class::SimdFloatReduceCmp             0      0.00%     96.00% # Class of executed instruction
system.cpu.op_class::SimdAes                        0      0.00%     96.00% # Class of executed instruction
system.cpu.op_class::SimdAesMix                     0      0.00%     96.00% # Class of executed instruction
system.cpu.op_class::SimdSha1Hash                   0      0.00%     96.00% # Class of executed instruction
system.cpu.op_class::SimdSha1Hash2                  0      0.00%     96.00% # Class of executed instruction
system.cpu.op_class::SimdSha256Hash                 0      0.00%     96.00% # Class of executed instruction
system.cpu.op_class::SimdSha256Hash2                0      0.00%     96.00% # Class of executed instruction
system.cpu.op_class::SimdShaSigma2                  0      0.00%     96.00% # Class of executed instruction
system.cpu.op_class::SimdShaSigma3                  0      0.00%     96.00% # Class of executed instruction
system.cpu.op_class::SimdPredAlu                    0      0.00%     96.00% # Class of executed instruction
system.cpu.op_class::MemRead                        0      0.00%     96.00% # Class of executed instruction
system.cpu.op_class::MemWrite                       0      0.00%     96.00% # Class of executed instruction
system.cpu.op_class::FloatMemRead                   1      4.00%    100.00% # Class of executed instruction
system.cpu.op_class::FloatMemWrite                  0      0.00%    100.00% # Class of executed instruction
system.cpu.op_class::IprAccess                      0      0.00%    100.00% # Class of executed instruction
system.cpu.op_class::InstPrefetch                   0      0.00%    100.00% # Class of executed instruction
system.cpu.op_class::total                         25                       # Class of executed instruction
system.cpu.workload.numSyscalls                     0                       # Number of system calls
system.membus.snoop_filter.hit_multi_requests            0                       # Number of requests hitting in the snoop filter with multiple (>1) holders of the requested data.
system.membus.snoop_filter.hit_multi_snoops            0                       # Number of snoops hitting in the snoop filter with multiple (>1) holders of the requested data.
system.membus.snoop_filter.hit_single_requests       292620                       # Number of requests hitting in the snoop filter with a single holder of the requested data.
system.membus.snoop_filter.hit_single_snoops            0                       # Number of snoops hitting in the snoop filter with a single holder of the requested data.
system.membus.snoop_filter.tot_requests        589376                       # Total number of requests made to the snoop filter.
system.membus.snoop_filter.tot_snoops               0                       # Total number of snoops made to the snoop filter.
system.switch_cpus.branchPred.BTBCorrect            0                       # Number of correct BTB predictions (this stat may not work properly.
system.switch_cpus.branchPred.BTBHitPct      0.000000                       # BTB Hit Percentage
system.switch_cpus.branchPred.BTBHits               0                       # Number of BTB hits
system.switch_cpus.branchPred.BTBLookups        29292                       # Number of BTB lookups
system.switch_cpus.branchPred.RASInCorrect            0                       # Number of incorrect RAS predictions.
system.switch_cpus.branchPred.condIncorrect          326                       # Number of conditional branches incorrect
system.switch_cpus.branchPred.condPredicted       116363                       # Number of conditional branches predicted
system.switch_cpus.branchPred.indirectHits        29276                       # Number of indirect target hits.
system.switch_cpus.branchPred.indirectLookups        29292                       # Number of indirect predictor lookups.
system.switch_cpus.branchPred.indirectMisses           16                       # Number of indirect misses.
system.switch_cpus.branchPred.lookups          116378                       # Number of BP lookups
system.switch_cpus.branchPred.usedRAS              15                       # Number of times the RAS was used to get a target.
system.switch_cpus.branchPredindirectMispredicted           16                       # Number of mispredicted indirect branches.
system.switch_cpus.cc_regfile_reads            496522                       # number of cc regfile reads
system.switch_cpus.cc_regfile_writes           353407                       # number of cc regfile writes
system.switch_cpus.commit.amos                      0                       # Number of atomic instructions committed
system.switch_cpus.commit.branchMispredicts          326                       # The number of times a branch was mispredicted
system.switch_cpus.commit.branches             116024                       # Number of branches committed
system.switch_cpus.commit.bw_lim_events        499416                       # number cycles where commit BW limit reached
system.switch_cpus.commit.commitSquashedInsts        14272                       # The number of squashed insts skipped by commit
system.switch_cpus.commit.committedInsts     10000002                       # Number of instructions committed
system.switch_cpus.commit.committedOps       13670333                       # Number of ops (including micro ops) committed
system.switch_cpus.commit.committed_per_cycle::samples     66021985                       # Number of insts commited each cycle
system.switch_cpus.commit.committed_per_cycle::mean     0.207057                       # Number of insts commited each cycle
system.switch_cpus.commit.committed_per_cycle::stdev     0.976584                       # Number of insts commited each cycle
system.switch_cpus.commit.committed_per_cycle::underflows            0      0.00%      0.00% # Number of insts commited each cycle
system.switch_cpus.commit.committed_per_cycle::0     61494271     93.14%     93.14% # Number of insts commited each cycle
system.switch_cpus.commit.committed_per_cycle::1      1708161      2.59%     95.73% # Number of insts commited each cycle
system.switch_cpus.commit.committed_per_cycle::2       804079      1.22%     96.95% # Number of insts commited each cycle
system.switch_cpus.commit.committed_per_cycle::3       538919      0.82%     97.76% # Number of insts commited each cycle
system.switch_cpus.commit.committed_per_cycle::4       489117      0.74%     98.50% # Number of insts commited each cycle
system.switch_cpus.commit.committed_per_cycle::5       259720      0.39%     98.90% # Number of insts commited each cycle
system.switch_cpus.commit.committed_per_cycle::6       111253      0.17%     99.07% # Number of insts commited each cycle
system.switch_cpus.commit.committed_per_cycle::7       117049      0.18%     99.24% # Number of insts commited each cycle
system.switch_cpus.commit.committed_per_cycle::8       499416      0.76%    100.00% # Number of insts commited each cycle
system.switch_cpus.commit.committed_per_cycle::overflows            0      0.00%    100.00% # Number of insts commited each cycle
system.switch_cpus.commit.committed_per_cycle::min_value            0                       # Number of insts commited each cycle
system.switch_cpus.commit.committed_per_cycle::max_value            8                       # Number of insts commited each cycle
system.switch_cpus.commit.committed_per_cycle::total     66021985                       # Number of insts commited each cycle
system.switch_cpus.commit.fp_insts           12684123                       # Number of committed floating point instructions.
system.switch_cpus.commit.function_calls            0                       # Number of function calls committed.
system.switch_cpus.commit.int_insts           3957917                       # Number of committed integer instructions.
system.switch_cpus.commit.loads               1984312                       # Number of loads committed
system.switch_cpus.commit.membars                   0                       # Number of memory barriers committed
system.switch_cpus.commit.mispred_commit_branch          326                       # mein_hi_hun
system.switch_cpus.commit.op_class_0::No_OpClass            0      0.00%      0.00% # Class of committed instruction
system.switch_cpus.commit.op_class_0::IntAlu      2945788     21.55%     21.55% # Class of committed instruction
system.switch_cpus.commit.op_class_0::IntMult            0      0.00%     21.55% # Class of committed instruction
system.switch_cpus.commit.op_class_0::IntDiv            0      0.00%     21.55% # Class of committed instruction
system.switch_cpus.commit.op_class_0::FloatAdd      1528471     11.18%     32.73% # Class of committed instruction
system.switch_cpus.commit.op_class_0::FloatCmp            0      0.00%     32.73% # Class of committed instruction
system.switch_cpus.commit.op_class_0::FloatCvt            0      0.00%     32.73% # Class of committed instruction
system.switch_cpus.commit.op_class_0::FloatMult            0      0.00%     32.73% # Class of committed instruction
system.switch_cpus.commit.op_class_0::FloatMultAcc            0      0.00%     32.73% # Class of committed instruction
system.switch_cpus.commit.op_class_0::FloatDiv            0      0.00%     32.73% # Class of committed instruction
system.switch_cpus.commit.op_class_0::FloatMisc            0      0.00%     32.73% # Class of committed instruction
system.switch_cpus.commit.op_class_0::FloatSqrt            0      0.00%     32.73% # Class of committed instruction
system.switch_cpus.commit.op_class_0::SimdAdd            0      0.00%     32.73% # Class of committed instruction
system.switch_cpus.commit.op_class_0::SimdAddAcc            0      0.00%     32.73% # Class of committed instruction
system.switch_cpus.commit.op_class_0::SimdAlu       113668      0.83%     33.56% # Class of committed instruction
system.switch_cpus.commit.op_class_0::SimdCmp            0      0.00%     33.56% # Class of committed instruction
system.switch_cpus.commit.op_class_0::SimdCvt            0      0.00%     33.56% # Class of committed instruction
system.switch_cpus.commit.op_class_0::SimdMisc            0      0.00%     33.56% # Class of committed instruction
system.switch_cpus.commit.op_class_0::SimdMult            0      0.00%     33.56% # Class of committed instruction
system.switch_cpus.commit.op_class_0::SimdMultAcc            0      0.00%     33.56% # Class of committed instruction
system.switch_cpus.commit.op_class_0::SimdShift            0      0.00%     33.56% # Class of committed instruction
system.switch_cpus.commit.op_class_0::SimdShiftAcc            0      0.00%     33.56% # Class of committed instruction
system.switch_cpus.commit.op_class_0::SimdDiv            0      0.00%     33.56% # Class of committed instruction
system.switch_cpus.commit.op_class_0::SimdSqrt            0      0.00%     33.56% # Class of committed instruction
system.switch_cpus.commit.op_class_0::SimdFloatAdd      3779379     27.65%     61.21% # Class of committed instruction
system.switch_cpus.commit.op_class_0::SimdFloatAlu            0      0.00%     61.21% # Class of committed instruction
system.switch_cpus.commit.op_class_0::SimdFloatCmp            0      0.00%     61.21% # Class of committed instruction
system.switch_cpus.commit.op_class_0::SimdFloatCvt            0      0.00%     61.21% # Class of committed instruction
system.switch_cpus.commit.op_class_0::SimdFloatDiv        85248      0.62%     61.83% # Class of committed instruction
system.switch_cpus.commit.op_class_0::SimdFloatMisc            0      0.00%     61.83% # Class of committed instruction
system.switch_cpus.commit.op_class_0::SimdFloatMult      2216476     16.21%     78.05% # Class of committed instruction
system.switch_cpus.commit.op_class_0::SimdFloatMultAcc            0      0.00%     78.05% # Class of committed instruction
system.switch_cpus.commit.op_class_0::SimdFloatSqrt            0      0.00%     78.05% # Class of committed instruction
system.switch_cpus.commit.op_class_0::SimdReduceAdd            0      0.00%     78.05% # Class of committed instruction
system.switch_cpus.commit.op_class_0::SimdReduceAlu            0      0.00%     78.05% # Class of committed instruction
system.switch_cpus.commit.op_class_0::SimdReduceCmp            0      0.00%     78.05% # Class of committed instruction
system.switch_cpus.commit.op_class_0::SimdFloatReduceAdd            0      0.00%     78.05% # Class of committed instruction
system.switch_cpus.commit.op_class_0::SimdFloatReduceCmp            0      0.00%     78.05% # Class of committed instruction
system.switch_cpus.commit.op_class_0::SimdAes            0      0.00%     78.05% # Class of committed instruction
system.switch_cpus.commit.op_class_0::SimdAesMix            0      0.00%     78.05% # Class of committed instruction
system.switch_cpus.commit.op_class_0::SimdSha1Hash            0      0.00%     78.05% # Class of committed instruction
system.switch_cpus.commit.op_class_0::SimdSha1Hash2            0      0.00%     78.05% # Class of committed instruction
system.switch_cpus.commit.op_class_0::SimdSha256Hash            0      0.00%     78.05% # Class of committed instruction
system.switch_cpus.commit.op_class_0::SimdSha256Hash2            0      0.00%     78.05% # Class of committed instruction
system.switch_cpus.commit.op_class_0::SimdShaSigma2            0      0.00%     78.05% # Class of committed instruction
system.switch_cpus.commit.op_class_0::SimdShaSigma3            0      0.00%     78.05% # Class of committed instruction
system.switch_cpus.commit.op_class_0::SimdPredAlu            0      0.00%     78.05% # Class of committed instruction
system.switch_cpus.commit.op_class_0::MemRead        29596      0.22%     78.26% # Class of committed instruction
system.switch_cpus.commit.op_class_0::MemWrite            0      0.00%     78.26% # Class of committed instruction
system.switch_cpus.commit.op_class_0::FloatMemRead      1954716     14.30%     92.56% # Class of committed instruction
system.switch_cpus.commit.op_class_0::FloatMemWrite      1016991      7.44%    100.00% # Class of committed instruction
system.switch_cpus.commit.op_class_0::IprAccess            0      0.00%    100.00% # Class of committed instruction
system.switch_cpus.commit.op_class_0::InstPrefetch            0      0.00%    100.00% # Class of committed instruction
system.switch_cpus.commit.op_class_0::total     13670333                       # Class of committed instruction
system.switch_cpus.commit.refs                3001303                       # Number of memory references committed
system.switch_cpus.commit.swp_count                 0                       # Number of s/w prefetches committed
system.switch_cpus.commit.vec_insts                 0                       # Number of committed Vector instructions.
system.switch_cpus.committedInsts            10000002                       # Number of Instructions Simulated
system.switch_cpus.committedOps              13670333                       # Number of Ops (including micro ops) Simulated
system.switch_cpus.cpi                       6.602698                       # CPI: Cycles Per Instruction
system.switch_cpus.cpi_total                 6.602698                       # CPI: Total CPI of All Threads
system.switch_cpus.decode.BlockedCycles      63832700                       # Number of cycles decode is blocked
system.switch_cpus.decode.DecodedInsts       13687611                       # Number of instructions handled by decode
system.switch_cpus.decode.IdleCycles           401630                       # Number of cycles decode is idle
system.switch_cpus.decode.RunCycles            950294                       # Number of cycles decode is running
system.switch_cpus.decode.SquashCycles            361                       # Number of cycles decode is squashing
system.switch_cpus.decode.UnblockCycles        839018                       # Number of cycles decode is unblocking
system.switch_cpus.dtb.rdAccesses             1987126                       # TLB accesses on read requests
system.switch_cpus.dtb.rdMisses                  1159                       # TLB misses on read requests
system.switch_cpus.dtb.wrAccesses             1017316                       # TLB accesses on write requests
system.switch_cpus.dtb.wrMisses                  3495                       # TLB misses on write requests
system.switch_cpus.fetch.Branches              116378                       # Number of branches that fetch encountered
system.switch_cpus.fetch.CacheLines            832977                       # Number of cache lines fetched
system.switch_cpus.fetch.Cycles              65185404                       # Number of cycles fetch has run and was not squashing or blocked
system.switch_cpus.fetch.IcacheSquashes             3                       # Number of outstanding Icache misses that were squashed
system.switch_cpus.fetch.Insts               10022789                       # Number of instructions fetch has processed
system.switch_cpus.fetch.PendingTrapStallCycles           14                       # Number of stall cycles due to pending traps
system.switch_cpus.fetch.SquashCycles             722                       # Number of cycles fetch has spent squashing
system.switch_cpus.fetch.branchRate          0.001763                       # Number of branch fetches per cycle
system.switch_cpus.fetch.icacheStallCycles       838280                       # Number of cycles fetch is stalled on an Icache miss
system.switch_cpus.fetch.predictedBranches        29291                       # Number of branches that fetch has predicted taken
system.switch_cpus.fetch.rate                0.151798                       # Number of inst fetches per cycle
system.switch_cpus.fetch.rateDist::samples     66024059                       # Number of instructions fetched each cycle (Total)
system.switch_cpus.fetch.rateDist::mean      0.207559                       # Number of instructions fetched each cycle (Total)
system.switch_cpus.fetch.rateDist::stdev     1.202640                       # Number of instructions fetched each cycle (Total)
system.switch_cpus.fetch.rateDist::underflows            0      0.00%      0.00% # Number of instructions fetched each cycle (Total)
system.switch_cpus.fetch.rateDist::0         63761569     96.57%     96.57% # Number of instructions fetched each cycle (Total)
system.switch_cpus.fetch.rateDist::1           210992      0.32%     96.89% # Number of instructions fetched each cycle (Total)
system.switch_cpus.fetch.rateDist::2           214619      0.33%     97.22% # Number of instructions fetched each cycle (Total)
system.switch_cpus.fetch.rateDist::3           105012      0.16%     97.38% # Number of instructions fetched each cycle (Total)
system.switch_cpus.fetch.rateDist::4           108441      0.16%     97.54% # Number of instructions fetched each cycle (Total)
system.switch_cpus.fetch.rateDist::5            90955      0.14%     97.68% # Number of instructions fetched each cycle (Total)
system.switch_cpus.fetch.rateDist::6           115643      0.18%     97.85% # Number of instructions fetched each cycle (Total)
system.switch_cpus.fetch.rateDist::7           168392      0.26%     98.11% # Number of instructions fetched each cycle (Total)
system.switch_cpus.fetch.rateDist::8          1248436      1.89%    100.00% # Number of instructions fetched each cycle (Total)
system.switch_cpus.fetch.rateDist::overflows            0      0.00%    100.00% # Number of instructions fetched each cycle (Total)
system.switch_cpus.fetch.rateDist::min_value            0                       # Number of instructions fetched each cycle (Total)
system.switch_cpus.fetch.rateDist::max_value            8                       # Number of instructions fetched each cycle (Total)
system.switch_cpus.fetch.rateDist::total     66024059                       # Number of instructions fetched each cycle (Total)
system.switch_cpus.fp_regfile_reads          23468921                       # number of floating regfile reads
system.switch_cpus.fp_regfile_writes         11671787                       # number of floating regfile writes
system.switch_cpus.idleCycles                    2931                       # Total number of cycles that the CPU has spent unscheduled due to idling
system.switch_cpus.iew.Average_branch_resolution_cycles            0                       # sirf mispred wala
system.switch_cpus.iew.branchMispredicts          326                       # Number of branch mispredicts detected at execute
system.switch_cpus.iew.exec_branches           116057                       # Number of branches executed
system.switch_cpus.iew.exec_nop                     0                       # number of nop insts executed
system.switch_cpus.iew.exec_rate             0.207236                       # Inst execution rate
system.switch_cpus.iew.exec_refs              3009568                       # number of memory reference insts executed
system.switch_cpus.iew.exec_stores            1017316                       # Number of stores executed
system.switch_cpus.iew.exec_swp                     0                       # number of swp insts executed
system.switch_cpus.iew.global_million_exceeded_g            0                       # multiple with  million wala
system.switch_cpus.iew.global_million_timer_g 51672.416000                       # less than million wala
system.switch_cpus.iew.iewBlockCycles         3511199                       # Number of cycles IEW is blocking
system.switch_cpus.iew.iewDispLoadInsts       1987550                       # Number of dispatched load instructions
system.switch_cpus.iew.iewDispNonSpecInsts            0                       # Number of dispatched non-speculative instructions
system.switch_cpus.iew.iewDispSquashedInsts            0                       # Number of squashed instructions skipped by dispatch
system.switch_cpus.iew.iewDispStoreInsts      1018240                       # Number of dispatched store instructions
system.switch_cpus.iew.iewDispatchedInsts     13680730                       # Number of instructions dispatched to IQ
system.switch_cpus.iew.iewExecLoadInsts       1992252                       # Number of load instructions executed
system.switch_cpus.iew.iewExecSquashedInsts          109                       # Number of squashed instructions skipped in execute
system.switch_cpus.iew.iewExecutedInsts      13683165                       # Number of executed instructions
system.switch_cpus.iew.iewIQFullEvents          69953                       # Number of times the IQ has become full, causing a stall
system.switch_cpus.iew.iewIdleCycles                0                       # Number of cycles IEW is idle
system.switch_cpus.iew.iewLSQFullEvents      35206472                       # Number of times the LSQ has become full, causing a stall
system.switch_cpus.iew.iewSquashCycles            361                       # Number of cycles IEW is squashing
system.switch_cpus.iew.iewUnblockCycles      35379048                       # Number of cycles IEW is unblocking
system.switch_cpus.iew.lsq.thread0.blockedLoads            0                       # Number of blocked loads due to partial load-store forwarding
system.switch_cpus.iew.lsq.thread0.cacheBlocked         1132                       # Number of times an access to memory failed due to the cache being blocked
system.switch_cpus.iew.lsq.thread0.forwLoads       568422                       # Number of loads that had data forwarded from stores
system.switch_cpus.iew.lsq.thread0.ignoredResponses            1                       # Number of memory responses ignored because the instruction is squashed
system.switch_cpus.iew.lsq.thread0.invAddrLoads            0                       # Number of loads ignored due to an invalid address
system.switch_cpus.iew.lsq.thread0.invAddrSwpfs            0                       # Number of software prefetches ignored due to an invalid address
system.switch_cpus.iew.lsq.thread0.memOrderViolation           50                       # Number of memory ordering violations
system.switch_cpus.iew.lsq.thread0.night5            0                       # Number of loads that were rescheduled
system.switch_cpus.iew.lsq.thread0.rescheduledLoads            0                       # Number of loads that were rescheduled
system.switch_cpus.iew.lsq.thread0.squashedLoads         3233                       # Number of loads squashed
system.switch_cpus.iew.lsq.thread0.squashedStores         1249                       # Number of stores squashed
system.switch_cpus.iew.memOrderViolationEvents           50                       # Number of memory order violations
system.switch_cpus.iew.predictedNotTakenIncorrect          323                       # Number of branches that were predicted not taken incorrectly
system.switch_cpus.iew.predictedTakenIncorrect            3                       # Number of branches that were predicted taken incorrectly
system.switch_cpus.iew.td                           0                       # Number of td executed instructions
system.switch_cpus.iew.wb_consumers          16204018                       # num instructions consuming a value
system.switch_cpus.iew.wb_count              13676008                       # cumulative count of insts written-back
system.switch_cpus.iew.wb_fanout             0.553720                       # average fanout of values written-back
system.switch_cpus.iew.wb_producers           8972483                       # num instructions producing a value
system.switch_cpus.iew.wb_rate               0.207128                       # insts written-back per cycle
system.switch_cpus.iew.wb_sent               13676031                       # cumulative count of insts sent to commit
system.switch_cpus.int_regfile_reads          6663844                       # number of integer regfile reads
system.switch_cpus.int_regfile_writes          870949                       # number of integer regfile writes
system.switch_cpus.ipc                       0.151453                       # IPC: Instructions Per Cycle
system.switch_cpus.ipc_total                 0.151453                       # IPC: Total IPC of All Threads
system.switch_cpus.iq.FU_type_0::No_OpClass            0      0.00%      0.00% # Type of FU issued
system.switch_cpus.iq.FU_type_0::IntAlu       2947213     21.54%     21.54% # Type of FU issued
system.switch_cpus.iq.FU_type_0::IntMult            0      0.00%     21.54% # Type of FU issued
system.switch_cpus.iq.FU_type_0::IntDiv             0      0.00%     21.54% # Type of FU issued
system.switch_cpus.iq.FU_type_0::FloatAdd      1531223     11.19%     32.73% # Type of FU issued
system.switch_cpus.iq.FU_type_0::FloatCmp            0      0.00%     32.73% # Type of FU issued
system.switch_cpus.iq.FU_type_0::FloatCvt            0      0.00%     32.73% # Type of FU issued
system.switch_cpus.iq.FU_type_0::FloatMult            0      0.00%     32.73% # Type of FU issued
system.switch_cpus.iq.FU_type_0::FloatMultAcc            0      0.00%     32.73% # Type of FU issued
system.switch_cpus.iq.FU_type_0::FloatDiv            0      0.00%     32.73% # Type of FU issued
system.switch_cpus.iq.FU_type_0::FloatMisc            0      0.00%     32.73% # Type of FU issued
system.switch_cpus.iq.FU_type_0::FloatSqrt            0      0.00%     32.73% # Type of FU issued
system.switch_cpus.iq.FU_type_0::SimdAdd            0      0.00%     32.73% # Type of FU issued
system.switch_cpus.iq.FU_type_0::SimdAddAcc            0      0.00%     32.73% # Type of FU issued
system.switch_cpus.iq.FU_type_0::SimdAlu       113668      0.83%     33.56% # Type of FU issued
system.switch_cpus.iq.FU_type_0::SimdCmp            0      0.00%     33.56% # Type of FU issued
system.switch_cpus.iq.FU_type_0::SimdCvt            0      0.00%     33.56% # Type of FU issued
system.switch_cpus.iq.FU_type_0::SimdMisc            0      0.00%     33.56% # Type of FU issued
system.switch_cpus.iq.FU_type_0::SimdMult            0      0.00%     33.56% # Type of FU issued
system.switch_cpus.iq.FU_type_0::SimdMultAcc            0      0.00%     33.56% # Type of FU issued
system.switch_cpus.iq.FU_type_0::SimdShift            0      0.00%     33.56% # Type of FU issued
system.switch_cpus.iq.FU_type_0::SimdShiftAcc            0      0.00%     33.56% # Type of FU issued
system.switch_cpus.iq.FU_type_0::SimdDiv            0      0.00%     33.56% # Type of FU issued
system.switch_cpus.iq.FU_type_0::SimdSqrt            0      0.00%     33.56% # Type of FU issued
system.switch_cpus.iq.FU_type_0::SimdFloatAdd      3779839     27.62%     61.18% # Type of FU issued
system.switch_cpus.iq.FU_type_0::SimdFloatAlu            0      0.00%     61.18% # Type of FU issued
system.switch_cpus.iq.FU_type_0::SimdFloatCmp            0      0.00%     61.18% # Type of FU issued
system.switch_cpus.iq.FU_type_0::SimdFloatCvt            0      0.00%     61.18% # Type of FU issued
system.switch_cpus.iq.FU_type_0::SimdFloatDiv        85248      0.62%     61.81% # Type of FU issued
system.switch_cpus.iq.FU_type_0::SimdFloatMisc            0      0.00%     61.81% # Type of FU issued
system.switch_cpus.iq.FU_type_0::SimdFloatMult      2216485     16.20%     78.01% # Type of FU issued
system.switch_cpus.iq.FU_type_0::SimdFloatMultAcc            0      0.00%     78.01% # Type of FU issued
system.switch_cpus.iq.FU_type_0::SimdFloatSqrt            0      0.00%     78.01% # Type of FU issued
system.switch_cpus.iq.FU_type_0::SimdReduceAdd            0      0.00%     78.01% # Type of FU issued
system.switch_cpus.iq.FU_type_0::SimdReduceAlu            0      0.00%     78.01% # Type of FU issued
system.switch_cpus.iq.FU_type_0::SimdReduceCmp            0      0.00%     78.01% # Type of FU issued
system.switch_cpus.iq.FU_type_0::SimdFloatReduceAdd            0      0.00%     78.01% # Type of FU issued
system.switch_cpus.iq.FU_type_0::SimdFloatReduceCmp            0      0.00%     78.01% # Type of FU issued
system.switch_cpus.iq.FU_type_0::SimdAes            0      0.00%     78.01% # Type of FU issued
system.switch_cpus.iq.FU_type_0::SimdAesMix            0      0.00%     78.01% # Type of FU issued
system.switch_cpus.iq.FU_type_0::SimdSha1Hash            0      0.00%     78.01% # Type of FU issued
system.switch_cpus.iq.FU_type_0::SimdSha1Hash2            0      0.00%     78.01% # Type of FU issued
system.switch_cpus.iq.FU_type_0::SimdSha256Hash            0      0.00%     78.01% # Type of FU issued
system.switch_cpus.iq.FU_type_0::SimdSha256Hash2            0      0.00%     78.01% # Type of FU issued
system.switch_cpus.iq.FU_type_0::SimdShaSigma2            0      0.00%     78.01% # Type of FU issued
system.switch_cpus.iq.FU_type_0::SimdShaSigma3            0      0.00%     78.01% # Type of FU issued
system.switch_cpus.iq.FU_type_0::SimdPredAlu            0      0.00%     78.01% # Type of FU issued
system.switch_cpus.iq.FU_type_0::MemRead        29596      0.22%     78.22% # Type of FU issued
system.switch_cpus.iq.FU_type_0::MemWrite            0      0.00%     78.22% # Type of FU issued
system.switch_cpus.iq.FU_type_0::FloatMemRead      1962691     14.34%     92.57% # Type of FU issued
system.switch_cpus.iq.FU_type_0::FloatMemWrite      1017316      7.43%    100.00% # Type of FU issued
system.switch_cpus.iq.FU_type_0::IprAccess            0      0.00%    100.00% # Type of FU issued
system.switch_cpus.iq.FU_type_0::InstPrefetch            0      0.00%    100.00% # Type of FU issued
system.switch_cpus.iq.FU_type_0::total       13683279                       # Type of FU issued
system.switch_cpus.iq.fp_alu_accesses        12745642                       # Number of floating point alu accesses
system.switch_cpus.iq.fp_inst_queue_reads     25441916                       # Number of floating instruction queue reads
system.switch_cpus.iq.fp_inst_queue_wakeup_accesses     12689022                       # Number of floating instruction queue wakeup accesses
system.switch_cpus.iq.fp_inst_queue_writes     12703289                       # Number of floating instruction queue writes
system.switch_cpus.iq.fu_busy_cnt               49365                       # FU busy when requested
system.switch_cpus.iq.fu_busy_rate           0.003608                       # FU busy rate (busy events/executed inst)
system.switch_cpus.iq.fu_full::No_OpClass            0      0.00%      0.00% # attempts to use FU when none available
system.switch_cpus.iq.fu_full::IntAlu               2      0.00%      0.00% # attempts to use FU when none available
system.switch_cpus.iq.fu_full::IntMult              0      0.00%      0.00% # attempts to use FU when none available
system.switch_cpus.iq.fu_full::IntDiv               0      0.00%      0.00% # attempts to use FU when none available
system.switch_cpus.iq.fu_full::FloatAdd             0      0.00%      0.00% # attempts to use FU when none available
system.switch_cpus.iq.fu_full::FloatCmp             0      0.00%      0.00% # attempts to use FU when none available
system.switch_cpus.iq.fu_full::FloatCvt             0      0.00%      0.00% # attempts to use FU when none available
system.switch_cpus.iq.fu_full::FloatMult            0      0.00%      0.00% # attempts to use FU when none available
system.switch_cpus.iq.fu_full::FloatMultAcc            0      0.00%      0.00% # attempts to use FU when none available
system.switch_cpus.iq.fu_full::FloatDiv             0      0.00%      0.00% # attempts to use FU when none available
system.switch_cpus.iq.fu_full::FloatMisc            0      0.00%      0.00% # attempts to use FU when none available
system.switch_cpus.iq.fu_full::FloatSqrt            0      0.00%      0.00% # attempts to use FU when none available
system.switch_cpus.iq.fu_full::SimdAdd              0      0.00%      0.00% # attempts to use FU when none available
system.switch_cpus.iq.fu_full::SimdAddAcc            0      0.00%      0.00% # attempts to use FU when none available
system.switch_cpus.iq.fu_full::SimdAlu              0      0.00%      0.00% # attempts to use FU when none available
system.switch_cpus.iq.fu_full::SimdCmp              0      0.00%      0.00% # attempts to use FU when none available
system.switch_cpus.iq.fu_full::SimdCvt              0      0.00%      0.00% # attempts to use FU when none available
system.switch_cpus.iq.fu_full::SimdMisc             0      0.00%      0.00% # attempts to use FU when none available
system.switch_cpus.iq.fu_full::SimdMult             0      0.00%      0.00% # attempts to use FU when none available
system.switch_cpus.iq.fu_full::SimdMultAcc            0      0.00%      0.00% # attempts to use FU when none available
system.switch_cpus.iq.fu_full::SimdShift            0      0.00%      0.00% # attempts to use FU when none available
system.switch_cpus.iq.fu_full::SimdShiftAcc            0      0.00%      0.00% # attempts to use FU when none available
system.switch_cpus.iq.fu_full::SimdDiv              0      0.00%      0.00% # attempts to use FU when none available
system.switch_cpus.iq.fu_full::SimdSqrt             0      0.00%      0.00% # attempts to use FU when none available
system.switch_cpus.iq.fu_full::SimdFloatAdd        42035     85.15%     85.16% # attempts to use FU when none available
system.switch_cpus.iq.fu_full::SimdFloatAlu            0      0.00%     85.16% # attempts to use FU when none available
system.switch_cpus.iq.fu_full::SimdFloatCmp            0      0.00%     85.16% # attempts to use FU when none available
system.switch_cpus.iq.fu_full::SimdFloatCvt            0      0.00%     85.16% # attempts to use FU when none available
system.switch_cpus.iq.fu_full::SimdFloatDiv            0      0.00%     85.16% # attempts to use FU when none available
system.switch_cpus.iq.fu_full::SimdFloatMisc            0      0.00%     85.16% # attempts to use FU when none available
system.switch_cpus.iq.fu_full::SimdFloatMult         5880     11.91%     97.07% # attempts to use FU when none available
system.switch_cpus.iq.fu_full::SimdFloatMultAcc            0      0.00%     97.07% # attempts to use FU when none available
system.switch_cpus.iq.fu_full::SimdFloatSqrt            0      0.00%     97.07% # attempts to use FU when none available
system.switch_cpus.iq.fu_full::SimdReduceAdd            0      0.00%     97.07% # attempts to use FU when none available
system.switch_cpus.iq.fu_full::SimdReduceAlu            0      0.00%     97.07% # attempts to use FU when none available
system.switch_cpus.iq.fu_full::SimdReduceCmp            0      0.00%     97.07% # attempts to use FU when none available
system.switch_cpus.iq.fu_full::SimdFloatReduceAdd            0      0.00%     97.07% # attempts to use FU when none available
system.switch_cpus.iq.fu_full::SimdFloatReduceCmp            0      0.00%     97.07% # attempts to use FU when none available
system.switch_cpus.iq.fu_full::SimdAes              0      0.00%     97.07% # attempts to use FU when none available
system.switch_cpus.iq.fu_full::SimdAesMix            0      0.00%     97.07% # attempts to use FU when none available
system.switch_cpus.iq.fu_full::SimdSha1Hash            0      0.00%     97.07% # attempts to use FU when none available
system.switch_cpus.iq.fu_full::SimdSha1Hash2            0      0.00%     97.07% # attempts to use FU when none available
system.switch_cpus.iq.fu_full::SimdSha256Hash            0      0.00%     97.07% # attempts to use FU when none available
system.switch_cpus.iq.fu_full::SimdSha256Hash2            0      0.00%     97.07% # attempts to use FU when none available
system.switch_cpus.iq.fu_full::SimdShaSigma2            0      0.00%     97.07% # attempts to use FU when none available
system.switch_cpus.iq.fu_full::SimdShaSigma3            0      0.00%     97.07% # attempts to use FU when none available
system.switch_cpus.iq.fu_full::SimdPredAlu            0      0.00%     97.07% # attempts to use FU when none available
system.switch_cpus.iq.fu_full::MemRead              0      0.00%     97.07% # attempts to use FU when none available
system.switch_cpus.iq.fu_full::MemWrite             0      0.00%     97.07% # attempts to use FU when none available
system.switch_cpus.iq.fu_full::FloatMemRead         1040      2.11%     99.17% # attempts to use FU when none available
system.switch_cpus.iq.fu_full::FloatMemWrite          408      0.83%    100.00% # attempts to use FU when none available
system.switch_cpus.iq.fu_full::IprAccess            0      0.00%    100.00% # attempts to use FU when none available
system.switch_cpus.iq.fu_full::InstPrefetch            0      0.00%    100.00% # attempts to use FU when none available
system.switch_cpus.iq.int_alu_accesses         987002                       # Number of integer alu accesses
system.switch_cpus.iq.int_inst_queue_reads     67998061                       # Number of integer instruction queue reads
system.switch_cpus.iq.int_inst_queue_wakeup_accesses       986986                       # Number of integer instruction queue wakeup accesses
system.switch_cpus.iq.int_inst_queue_writes       987839                       # Number of integer instruction queue writes
system.switch_cpus.iq.iqInstsAdded           13680730                       # Number of instructions added to the IQ (excludes non-spec)
system.switch_cpus.iq.iqInstsIssued          13683279                       # Number of instructions issued
system.switch_cpus.iq.iqSquashedInstsExamined        10348                       # Number of squashed instructions iterated over during squash; mainly for profiling
system.switch_cpus.iq.iqSquashedOperandsExamined        14780                       # Number of squashed operands that are examined and possibly removed from graph
system.switch_cpus.iq.issued_per_cycle::samples     66024059                       # Number of insts issued each cycle
system.switch_cpus.iq.issued_per_cycle::mean     0.207247                       # Number of insts issued each cycle
system.switch_cpus.iq.issued_per_cycle::stdev     0.894365                       # Number of insts issued each cycle
system.switch_cpus.iq.issued_per_cycle::underflows            0      0.00%      0.00% # Number of insts issued each cycle
system.switch_cpus.iq.issued_per_cycle::0     61263213     92.79%     92.79% # Number of insts issued each cycle
system.switch_cpus.iq.issued_per_cycle::1      1448980      2.19%     94.98% # Number of insts issued each cycle
system.switch_cpus.iq.issued_per_cycle::2       967672      1.47%     96.45% # Number of insts issued each cycle
system.switch_cpus.iq.issued_per_cycle::3       862760      1.31%     97.76% # Number of insts issued each cycle
system.switch_cpus.iq.issued_per_cycle::4       579224      0.88%     98.63% # Number of insts issued each cycle
system.switch_cpus.iq.issued_per_cycle::5       421832      0.64%     99.27% # Number of insts issued each cycle
system.switch_cpus.iq.issued_per_cycle::6       190845      0.29%     99.56% # Number of insts issued each cycle
system.switch_cpus.iq.issued_per_cycle::7       176715      0.27%     99.83% # Number of insts issued each cycle
system.switch_cpus.iq.issued_per_cycle::8       112818      0.17%    100.00% # Number of insts issued each cycle
system.switch_cpus.iq.issued_per_cycle::overflows            0      0.00%    100.00% # Number of insts issued each cycle
system.switch_cpus.iq.issued_per_cycle::min_value            0                       # Number of insts issued each cycle
system.switch_cpus.iq.issued_per_cycle::max_value            8                       # Number of insts issued each cycle
system.switch_cpus.iq.issued_per_cycle::total     66024059                       # Number of insts issued each cycle
system.switch_cpus.iq.rate                   0.207238                       # Inst issue rate
system.switch_cpus.iq.vec_alu_accesses              0                       # Number of vector alu accesses
system.switch_cpus.iq.vec_inst_queue_reads            0                       # Number of vector instruction queue reads
system.switch_cpus.iq.vec_inst_queue_wakeup_accesses            0                       # Number of vector instruction queue wakeup accesses
system.switch_cpus.iq.vec_inst_queue_writes            0                       # Number of vector instruction queue writes
system.switch_cpus.itb.rdAccesses                   0                       # TLB accesses on read requests
system.switch_cpus.itb.rdMisses                     0                       # TLB misses on read requests
system.switch_cpus.itb.wrAccesses              832992                       # TLB accesses on write requests
system.switch_cpus.itb.wrMisses                    16                       # TLB misses on write requests
system.switch_cpus.memDep0.conflictingLoads        50912                       # Number of conflicting loads.
system.switch_cpus.memDep0.conflictingStores        27966                       # Number of conflicting stores.
system.switch_cpus.memDep0.insertedLoads      1987550                       # Number of loads inserted to the mem dependence unit.
system.switch_cpus.memDep0.insertedStores      1018240                       # Number of stores inserted to the mem dependence unit.
system.switch_cpus.misc_regfile_reads         3497481                       # number of misc regfile reads
system.switch_cpus.misc_regfile_writes              1                       # number of misc regfile writes
system.switch_cpus.numCycles                 66026990                       # number of cpu cycles simulated
system.switch_cpus.numWorkItemsCompleted            0                       # number of work items this cpu completed
system.switch_cpus.numWorkItemsStarted              0                       # number of work items this cpu started
system.switch_cpus.rename.BlockCycles        38973993                       # Number of cycles rename is blocking
system.switch_cpus.rename.CommittedMaps      12890106                       # Number of HB maps that are committed
system.switch_cpus.rename.IQFullEvents         155385                       # Number of times rename has blocked due to IQ full
system.switch_cpus.rename.IdleCycles           726943                       # Number of cycles rename is idle
system.switch_cpus.rename.RenameLookups      34128422                       # Number of register rename lookups that rename has made
system.switch_cpus.rename.RenamedInsts       13684817                       # Number of instructions processed by rename
system.switch_cpus.rename.RenamedOperands     12903603                       # Number of destination operands rename has renamed
system.switch_cpus.rename.RunCycles           1379361                       # Number of cycles rename is running
system.switch_cpus.rename.SQFullEvents       24454068                       # Number of times rename has blocked due to SQ full
system.switch_cpus.rename.SquashCycles            361                       # Number of cycles rename is squashing
system.switch_cpus.rename.UnblockCycles      24943345                       # Number of cycles rename is unblocking
system.switch_cpus.rename.UndoneMaps            13444                       # Number of HB maps that are undone due to squashing
system.switch_cpus.rename.fp_rename_lookups     23475848                       # Number of floating rename lookups
system.switch_cpus.rename.int_rename_lookups      6660300                       # Number of integer rename lookups
system.switch_cpus.rename.serializeStallCycles            0                       # count of cycles rename stalled for serializing inst
system.switch_cpus.rename.serializingInsts            0                       # count of serializing insts renamed
system.switch_cpus.rename.skidInsts           5373188                       # count of insts added to the skid buffer
system.switch_cpus.rename.tempSerializingInsts            0                       # count of temporary serializing insts renamed
system.switch_cpus.rob.rob_reads             79207174                       # The number of ROB reads
system.switch_cpus.rob.rob_writes            27371333                       # The number of ROB writes
system.switch_cpus.timesIdled                      18                       # Number of times that the entire CPU went into an idle state and unscheduled itself
system.tol2bus.snoop_filter.hit_multi_requests            0                       # Number of requests hitting in the snoop filter with multiple (>1) holders of the requested data.
system.tol2bus.snoop_filter.hit_multi_snoops            0                       # Number of snoops hitting in the snoop filter with multiple (>1) holders of the requested data.
system.tol2bus.snoop_filter.hit_single_requests       487835                       # Number of requests hitting in the snoop filter with a single holder of the requested data.
system.tol2bus.snoop_filter.hit_single_snoops           52                       # Number of snoops hitting in the snoop filter with a single holder of the requested data.
system.tol2bus.snoop_filter.tot_requests       976219                       # Total number of requests made to the snoop filter.
system.tol2bus.snoop_filter.tot_snoops             52                       # Total number of snoops made to the snoop filter.
system.membus.pwrStateResidencyTicks::UNDEFINED 8854995037808                       # Cumulative time (in ticks) in various power states
system.membus.trans_dist::ReadResp              74041                       # Transaction distribution
system.membus.trans_dist::WritebackDirty       219430                       # Transaction distribution
system.membus.trans_dist::CleanEvict            73190                       # Transaction distribution
system.membus.trans_dist::ReadExReq            222715                       # Transaction distribution
system.membus.trans_dist::ReadExResp           222715                       # Transaction distribution
system.membus.trans_dist::ReadSharedReq         74041                       # Transaction distribution
system.membus.pkt_count_system.l2.mem_side::system.mem_ctrls.port       886132                       # Packet count per connected master and slave (bytes)
system.membus.pkt_count_system.l2.mem_side::total       886132                       # Packet count per connected master and slave (bytes)
system.membus.pkt_count::total                 886132                       # Packet count per connected master and slave (bytes)
system.membus.pkt_size_system.l2.mem_side::system.mem_ctrls.port     33035904                       # Cumulative packet size per connected master and slave (bytes)
system.membus.pkt_size_system.l2.mem_side::total     33035904                       # Cumulative packet size per connected master and slave (bytes)
system.membus.pkt_size::total                33035904                       # Cumulative packet size per connected master and slave (bytes)
system.membus.snoops                                0                       # Total snoops (count)
system.membus.snoopTraffic                          0                       # Total snoop traffic (bytes)
system.membus.snoop_fanout::samples            296756                       # Request fanout histogram
system.membus.snoop_fanout::mean                    0                       # Request fanout histogram
system.membus.snoop_fanout::stdev                   0                       # Request fanout histogram
system.membus.snoop_fanout::underflows              0      0.00%      0.00% # Request fanout histogram
system.membus.snoop_fanout::0                  296756    100.00%    100.00% # Request fanout histogram
system.membus.snoop_fanout::1                       0      0.00%    100.00% # Request fanout histogram
system.membus.snoop_fanout::overflows               0      0.00%    100.00% # Request fanout histogram
system.membus.snoop_fanout::min_value               0                       # Request fanout histogram
system.membus.snoop_fanout::max_value               0                       # Request fanout histogram
system.membus.snoop_fanout::total              296756                       # Request fanout histogram
system.membus.reqLayer2.occupancy          1695565374                       # Layer occupancy (ticks)
system.membus.reqLayer2.utilization               9.2                       # Layer utilization (%)
system.membus.respLayer1.occupancy         1566320682                       # Layer occupancy (ticks)
system.membus.respLayer1.utilization              8.5                       # Layer utilization (%)
system.switch_cpus.pwrStateResidencyTicks::OFF  18355513308                       # Cumulative time (in ticks) in various power states
system.switch_cpus.dtb.walker.pwrStateResidencyTicks::UNDEFINED 8854995037808                       # Cumulative time (in ticks) in various power states
system.switch_cpus.itb.walker.pwrStateResidencyTicks::UNDEFINED 8854995037808                       # Cumulative time (in ticks) in various power states
system.tol2bus.pwrStateResidencyTicks::UNDEFINED 8854995037808                       # Cumulative time (in ticks) in various power states
system.tol2bus.trans_dist::ReadResp             74042                       # Transaction distribution
system.tol2bus.trans_dist::WritebackDirty       633339                       # Transaction distribution
system.tol2bus.trans_dist::CleanEvict          147162                       # Transaction distribution
system.tol2bus.trans_dist::ReadExReq           414342                       # Transaction distribution
system.tol2bus.trans_dist::ReadExResp          414341                       # Transaction distribution
system.tol2bus.trans_dist::ReadCleanReq            36                       # Transaction distribution
system.tol2bus.trans_dist::ReadSharedReq        74006                       # Transaction distribution
system.tol2bus.pkt_count_system.cpu.icache.mem_side::system.l2.cpu_side           72                       # Packet count per connected master and slave (bytes)
system.tol2bus.pkt_count_system.cpu.dcache.mem_side::system.l2.cpu_side      1464530                       # Packet count per connected master and slave (bytes)
system.tol2bus.pkt_count::total               1464602                       # Packet count per connected master and slave (bytes)
system.tol2bus.pkt_size_system.cpu.icache.mem_side::system.l2.cpu_side         2304                       # Cumulative packet size per connected master and slave (bytes)
system.tol2bus.pkt_size_system.cpu.dcache.mem_side::system.l2.cpu_side     57744384                       # Cumulative packet size per connected master and slave (bytes)
system.tol2bus.pkt_size::total               57746688                       # Cumulative packet size per connected master and slave (bytes)
system.tol2bus.snoops                          292666                       # Total snoops (count)
system.tol2bus.snoopTraffic                  14043520                       # Total snoop traffic (bytes)
system.tol2bus.snoop_fanout::samples           781050                       # Request fanout histogram
system.tol2bus.snoop_fanout::mean            0.000067                       # Request fanout histogram
system.tol2bus.snoop_fanout::stdev           0.008159                       # Request fanout histogram
system.tol2bus.snoop_fanout::underflows             0      0.00%      0.00% # Request fanout histogram
system.tol2bus.snoop_fanout::0                 780998     99.99%     99.99% # Request fanout histogram
system.tol2bus.snoop_fanout::1                     52      0.01%    100.00% # Request fanout histogram
system.tol2bus.snoop_fanout::2                      0      0.00%    100.00% # Request fanout histogram
system.tol2bus.snoop_fanout::3                      0      0.00%    100.00% # Request fanout histogram
system.tol2bus.snoop_fanout::4                      0      0.00%    100.00% # Request fanout histogram
system.tol2bus.snoop_fanout::overflows              0      0.00%    100.00% # Request fanout histogram
system.tol2bus.snoop_fanout::min_value              0                       # Request fanout histogram
system.tol2bus.snoop_fanout::max_value              1                       # Request fanout histogram
system.tol2bus.snoop_fanout::total             781050                       # Request fanout histogram
system.tol2bus.reqLayer0.occupancy          501521452                       # Layer occupancy (ticks)
system.tol2bus.reqLayer0.utilization              2.7                       # Layer utilization (%)
system.tol2bus.respLayer1.occupancy         407280564                       # Layer occupancy (ticks)
system.tol2bus.respLayer1.utilization             2.2                       # Layer utilization (%)
system.tol2bus.respLayer0.occupancy             28356                       # Layer occupancy (ticks)
system.tol2bus.respLayer0.utilization             0.0                       # Layer utilization (%)
system.voltage_domain.voltage                       1                       # Voltage in Volts
system.clk_domain.clock                          1000                       # Clock period in ticks
system.l2.pwrStateResidencyTicks::UNDEFINED 8854995037808                       # Cumulative time (in ticks) in various power states
system.l2.demand_hits::.switch_cpus.data       191628                       # number of demand (read+write) hits
system.l2.demand_hits::total                   191628                       # number of demand (read+write) hits
system.l2.overall_hits::.switch_cpus.data       191628                       # number of overall hits
system.l2.overall_hits::total                  191628                       # number of overall hits
system.l2.demand_misses::.cpu.inst                  2                       # number of demand (read+write) misses
system.l2.demand_misses::.cpu.data                  1                       # number of demand (read+write) misses
system.l2.demand_misses::.switch_cpus.inst           34                       # number of demand (read+write) misses
system.l2.demand_misses::.switch_cpus.data       296719                       # number of demand (read+write) misses
system.l2.demand_misses::total                 296756                       # number of demand (read+write) misses
system.l2.overall_misses::.cpu.inst                 2                       # number of overall misses
system.l2.overall_misses::.cpu.data                 1                       # number of overall misses
system.l2.overall_misses::.switch_cpus.inst           34                       # number of overall misses
system.l2.overall_misses::.switch_cpus.data       296719                       # number of overall misses
system.l2.overall_misses::total                296756                       # number of overall misses
system.l2.demand_miss_latency::.switch_cpus.inst      2324080                       # number of demand (read+write) miss cycles
system.l2.demand_miss_latency::.switch_cpus.data  22075775670                       # number of demand (read+write) miss cycles
system.l2.demand_miss_latency::total      22078099750                       # number of demand (read+write) miss cycles
system.l2.overall_miss_latency::.switch_cpus.inst      2324080                       # number of overall miss cycles
system.l2.overall_miss_latency::.switch_cpus.data  22075775670                       # number of overall miss cycles
system.l2.overall_miss_latency::total     22078099750                       # number of overall miss cycles
system.l2.demand_accesses::.cpu.inst                2                       # number of demand (read+write) accesses
system.l2.demand_accesses::.cpu.data                1                       # number of demand (read+write) accesses
system.l2.demand_accesses::.switch_cpus.inst           34                       # number of demand (read+write) accesses
system.l2.demand_accesses::.switch_cpus.data       488347                       # number of demand (read+write) accesses
system.l2.demand_accesses::total               488384                       # number of demand (read+write) accesses
system.l2.overall_accesses::.cpu.inst               2                       # number of overall (read+write) accesses
system.l2.overall_accesses::.cpu.data               1                       # number of overall (read+write) accesses
system.l2.overall_accesses::.switch_cpus.inst           34                       # number of overall (read+write) accesses
system.l2.overall_accesses::.switch_cpus.data       488347                       # number of overall (read+write) accesses
system.l2.overall_accesses::total              488384                       # number of overall (read+write) accesses
system.l2.demand_miss_rate::.cpu.inst               1                       # miss rate for demand accesses
system.l2.demand_miss_rate::.cpu.data               1                       # miss rate for demand accesses
system.l2.demand_miss_rate::.switch_cpus.inst            1                       # miss rate for demand accesses
system.l2.demand_miss_rate::.switch_cpus.data     0.607599                       # miss rate for demand accesses
system.l2.demand_miss_rate::total            0.607628                       # miss rate for demand accesses
system.l2.overall_miss_rate::.cpu.inst              1                       # miss rate for overall accesses
system.l2.overall_miss_rate::.cpu.data              1                       # miss rate for overall accesses
system.l2.overall_miss_rate::.switch_cpus.inst            1                       # miss rate for overall accesses
system.l2.overall_miss_rate::.switch_cpus.data     0.607599                       # miss rate for overall accesses
system.l2.overall_miss_rate::total           0.607628                       # miss rate for overall accesses
system.l2.demand_avg_miss_latency::.switch_cpus.inst 68355.294118                       # average overall miss latency
system.l2.demand_avg_miss_latency::.switch_cpus.data 74399.602553                       # average overall miss latency
system.l2.demand_avg_miss_latency::total 74398.157914                       # average overall miss latency
system.l2.overall_avg_miss_latency::.switch_cpus.inst 68355.294118                       # average overall miss latency
system.l2.overall_avg_miss_latency::.switch_cpus.data 74399.602553                       # average overall miss latency
system.l2.overall_avg_miss_latency::total 74398.157914                       # average overall miss latency
system.l2.blocked_cycles::no_mshrs                  0                       # number of cycles access was blocked
system.l2.blocked_cycles::no_targets                0                       # number of cycles access was blocked
system.l2.blocked::no_mshrs                         0                       # number of cycles access was blocked
system.l2.blocked::no_targets                       0                       # number of cycles access was blocked
system.l2.avg_blocked_cycles::no_mshrs            nan                       # average number of cycles each access was blocked
system.l2.avg_blocked_cycles::no_targets          nan                       # average number of cycles each access was blocked
system.l2.writebacks::.writebacks              219430                       # number of writebacks
system.l2.writebacks::total                    219430                       # number of writebacks
system.l2.demand_mshr_misses::.switch_cpus.inst           34                       # number of demand (read+write) MSHR misses
system.l2.demand_mshr_misses::.switch_cpus.data       296719                       # number of demand (read+write) MSHR misses
system.l2.demand_mshr_misses::total            296753                       # number of demand (read+write) MSHR misses
system.l2.overall_mshr_misses::.switch_cpus.inst           34                       # number of overall MSHR misses
system.l2.overall_mshr_misses::.switch_cpus.data       296719                       # number of overall MSHR misses
system.l2.overall_mshr_misses::total           296753                       # number of overall MSHR misses
system.l2.demand_mshr_miss_latency::.switch_cpus.inst      2130760                       # number of demand (read+write) MSHR miss cycles
system.l2.demand_mshr_miss_latency::.switch_cpus.data  20384895824                       # number of demand (read+write) MSHR miss cycles
system.l2.demand_mshr_miss_latency::total  20387026584                       # number of demand (read+write) MSHR miss cycles
system.l2.overall_mshr_miss_latency::.switch_cpus.inst      2130760                       # number of overall MSHR miss cycles
system.l2.overall_mshr_miss_latency::.switch_cpus.data  20384895824                       # number of overall MSHR miss cycles
system.l2.overall_mshr_miss_latency::total  20387026584                       # number of overall MSHR miss cycles
system.l2.demand_mshr_miss_rate::.switch_cpus.inst            1                       # mshr miss rate for demand accesses
system.l2.demand_mshr_miss_rate::.switch_cpus.data     0.607599                       # mshr miss rate for demand accesses
system.l2.demand_mshr_miss_rate::total       0.607622                       # mshr miss rate for demand accesses
system.l2.overall_mshr_miss_rate::.switch_cpus.inst            1                       # mshr miss rate for overall accesses
system.l2.overall_mshr_miss_rate::.switch_cpus.data     0.607599                       # mshr miss rate for overall accesses
system.l2.overall_mshr_miss_rate::total      0.607622                       # mshr miss rate for overall accesses
system.l2.demand_avg_mshr_miss_latency::.switch_cpus.inst 62669.411765                       # average overall mshr miss latency
system.l2.demand_avg_mshr_miss_latency::.switch_cpus.data 68701.012824                       # average overall mshr miss latency
system.l2.demand_avg_mshr_miss_latency::total 68700.321763                       # average overall mshr miss latency
system.l2.overall_avg_mshr_miss_latency::.switch_cpus.inst 62669.411765                       # average overall mshr miss latency
system.l2.overall_avg_mshr_miss_latency::.switch_cpus.data 68701.012824                       # average overall mshr miss latency
system.l2.overall_avg_mshr_miss_latency::total 68700.321763                       # average overall mshr miss latency
system.l2.replacements                         292666                       # number of replacements
system.l2.csize                                     0                       # Cache sizes in total
system.l2.WritebackDirty_hits::.writebacks       413909                       # number of WritebackDirty hits
system.l2.WritebackDirty_hits::total           413909                       # number of WritebackDirty hits
system.l2.WritebackDirty_accesses::.writebacks       413909                       # number of WritebackDirty accesses(hits+misses)
system.l2.WritebackDirty_accesses::total       413909                       # number of WritebackDirty accesses(hits+misses)
system.l2.CleanEvict_mshr_misses::.writebacks            6                       # number of CleanEvict MSHR misses
system.l2.CleanEvict_mshr_misses::total             6                       # number of CleanEvict MSHR misses
system.l2.CleanEvict_mshr_miss_rate::.writebacks          inf                       # mshr miss rate for CleanEvict accesses
system.l2.CleanEvict_mshr_miss_rate::total          inf                       # mshr miss rate for CleanEvict accesses
system.l2.ReadExReq_hits::.switch_cpus.data       191627                       # number of ReadExReq hits
system.l2.ReadExReq_hits::total                191627                       # number of ReadExReq hits
system.l2.ReadExReq_misses::.switch_cpus.data       222715                       # number of ReadExReq misses
system.l2.ReadExReq_misses::total              222715                       # number of ReadExReq misses
system.l2.ReadExReq_miss_latency::.switch_cpus.data  16212387876                       # number of ReadExReq miss cycles
system.l2.ReadExReq_miss_latency::total   16212387876                       # number of ReadExReq miss cycles
system.l2.ReadExReq_accesses::.switch_cpus.data       414342                       # number of ReadExReq accesses(hits+misses)
system.l2.ReadExReq_accesses::total            414342                       # number of ReadExReq accesses(hits+misses)
system.l2.ReadExReq_miss_rate::.switch_cpus.data     0.537515                       # miss rate for ReadExReq accesses
system.l2.ReadExReq_miss_rate::total         0.537515                       # miss rate for ReadExReq accesses
system.l2.ReadExReq_avg_miss_latency::.switch_cpus.data 72794.324028                       # average ReadExReq miss latency
system.l2.ReadExReq_avg_miss_latency::total 72794.324028                       # average ReadExReq miss latency
system.l2.ReadExReq_mshr_misses::.switch_cpus.data       222715                       # number of ReadExReq MSHR misses
system.l2.ReadExReq_mshr_misses::total         222715                       # number of ReadExReq MSHR misses
system.l2.ReadExReq_mshr_miss_latency::.switch_cpus.data  14942917024                       # number of ReadExReq MSHR miss cycles
system.l2.ReadExReq_mshr_miss_latency::total  14942917024                       # number of ReadExReq MSHR miss cycles
system.l2.ReadExReq_mshr_miss_rate::.switch_cpus.data     0.537515                       # mshr miss rate for ReadExReq accesses
system.l2.ReadExReq_mshr_miss_rate::total     0.537515                       # mshr miss rate for ReadExReq accesses
system.l2.ReadExReq_avg_mshr_miss_latency::.switch_cpus.data 67094.344898                       # average ReadExReq mshr miss latency
system.l2.ReadExReq_avg_mshr_miss_latency::total 67094.344898                       # average ReadExReq mshr miss latency
system.l2.ReadCleanReq_misses::.cpu.inst            2                       # number of ReadCleanReq misses
system.l2.ReadCleanReq_misses::.switch_cpus.inst           34                       # number of ReadCleanReq misses
system.l2.ReadCleanReq_misses::total               36                       # number of ReadCleanReq misses
system.l2.ReadCleanReq_miss_latency::.switch_cpus.inst      2324080                       # number of ReadCleanReq miss cycles
system.l2.ReadCleanReq_miss_latency::total      2324080                       # number of ReadCleanReq miss cycles
system.l2.ReadCleanReq_accesses::.cpu.inst            2                       # number of ReadCleanReq accesses(hits+misses)
system.l2.ReadCleanReq_accesses::.switch_cpus.inst           34                       # number of ReadCleanReq accesses(hits+misses)
system.l2.ReadCleanReq_accesses::total             36                       # number of ReadCleanReq accesses(hits+misses)
system.l2.ReadCleanReq_miss_rate::.cpu.inst            1                       # miss rate for ReadCleanReq accesses
system.l2.ReadCleanReq_miss_rate::.switch_cpus.inst            1                       # miss rate for ReadCleanReq accesses
system.l2.ReadCleanReq_miss_rate::total             1                       # miss rate for ReadCleanReq accesses
system.l2.ReadCleanReq_avg_miss_latency::.switch_cpus.inst 68355.294118                       # average ReadCleanReq miss latency
system.l2.ReadCleanReq_avg_miss_latency::total 64557.777778                       # average ReadCleanReq miss latency
system.l2.ReadCleanReq_mshr_misses::.switch_cpus.inst           34                       # number of ReadCleanReq MSHR misses
system.l2.ReadCleanReq_mshr_misses::total           34                       # number of ReadCleanReq MSHR misses
system.l2.ReadCleanReq_mshr_miss_latency::.switch_cpus.inst      2130760                       # number of ReadCleanReq MSHR miss cycles
system.l2.ReadCleanReq_mshr_miss_latency::total      2130760                       # number of ReadCleanReq MSHR miss cycles
system.l2.ReadCleanReq_mshr_miss_rate::.switch_cpus.inst            1                       # mshr miss rate for ReadCleanReq accesses
system.l2.ReadCleanReq_mshr_miss_rate::total     0.944444                       # mshr miss rate for ReadCleanReq accesses
system.l2.ReadCleanReq_avg_mshr_miss_latency::.switch_cpus.inst 62669.411765                       # average ReadCleanReq mshr miss latency
system.l2.ReadCleanReq_avg_mshr_miss_latency::total 62669.411765                       # average ReadCleanReq mshr miss latency
system.l2.ReadSharedReq_hits::.switch_cpus.data            1                       # number of ReadSharedReq hits
system.l2.ReadSharedReq_hits::total                 1                       # number of ReadSharedReq hits
[...]
system.cpu.icache.tags.occ_task_id_percent::1024     0.070312                       # Percentage of cache occupancy per task id
system.cpu.icache.tags.tag_accesses           6664116                       # Number of tag accesses
system.cpu.icache.tags.data_accesses          6664116                       # Number of data accesses
system.cpu.dtb.walker.pwrStateResidencyTicks::UNDEFINED 8854995037808                       # Cumulative time (in ticks) in various power states
system.cpu.interrupts.clk_domain.clock           4448                       # Clock period in ticks
system.cpu.itb_walker_cache.pwrStateResidencyTicks::UNDEFINED 8854995037808                       # Cumulative time (in ticks) in various power states
system.cpu.itb_walker_cache.blocked_cycles::no_mshrs            0                       # number of cycles access was blocked
system.cpu.itb_walker_cache.blocked_cycles::no_targets            0                       # number of cycles access was blocked
system.cpu.itb_walker_cache.blocked::no_mshrs            0                       # number of cycles access was blocked
system.cpu.itb_walker_cache.blocked::no_targets            0                       # number of cycles access was blocked
system.cpu.itb_walker_cache.avg_blocked_cycles::no_mshrs          nan                       # average number of cycles each access was blocked
system.cpu.itb_walker_cache.avg_blocked_cycles::no_targets          nan                       # average number of cycles each access was blocked
system.cpu.itb_walker_cache.replacements            0                       # number of replacements
system.cpu.itb_walker_cache.csize                   0                       # Cache sizes in total
system.cpu.itb_walker_cache.tags.pwrStateResidencyTicks::UNDEFINED 8854995037808                       # Cumulative time (in ticks) in various power states
system.cpu.itb_walker_cache.tags.tagsinuse            0                       # Cycle average of tags in use
system.cpu.itb_walker_cache.tags.total_refs            0                       # Total number of references to valid blocks.
system.cpu.itb_walker_cache.tags.sampled_refs            0                       # Sample count of references to valid blocks.
system.cpu.itb_walker_cache.tags.avg_refs          nan                       # Average number of references to valid blocks.
system.cpu.itb_walker_cache.tags.warmup_cycle            0                       # Cycle when the warmup percentage was hit.
system.cpu.itb_walker_cache.tags.tag_accesses            0                       # Number of tag accesses
system.cpu.itb_walker_cache.tags.data_accesses            0                       # Number of data accesses
system.cpu.itb.walker.pwrStateResidencyTicks::UNDEFINED 8854995037808                       # Cumulative time (in ticks) in various power states
system.cpu.dtb_walker_cache.pwrStateResidencyTicks::UNDEFINED 8854995037808                       # Cumulative time (in ticks) in various power states
system.cpu.dtb_walker_cache.blocked_cycles::no_mshrs            0                       # number of cycles access was blocked
system.cpu.dtb_walker_cache.blocked_cycles::no_targets            0                       # number of cycles access was blocked
system.cpu.dtb_walker_cache.blocked::no_mshrs            0                       # number of cycles access was blocked
system.cpu.dtb_walker_cache.blocked::no_targets            0                       # number of cycles access was blocked
system.cpu.dtb_walker_cache.avg_blocked_cycles::no_mshrs          nan                       # average number of cycles each access was blocked
system.cpu.dtb_walker_cache.avg_blocked_cycles::no_targets          nan                       # average number of cycles each access was blocked
system.cpu.dtb_walker_cache.replacements            0                       # number of replacements
system.cpu.dtb_walker_cache.csize                   0                       # Cache sizes in total
system.cpu.dtb_walker_cache.tags.pwrStateResidencyTicks::UNDEFINED 8854995037808                       # Cumulative time (in ticks) in various power states
system.cpu.dtb_walker_cache.tags.tagsinuse            0                       # Cycle average of tags in use
system.cpu.dtb_walker_cache.tags.total_refs            0                       # Total number of references to valid blocks.
system.cpu.dtb_walker_cache.tags.sampled_refs            0                       # Sample count of references to valid blocks.
system.cpu.dtb_walker_cache.tags.avg_refs          nan                       # Average number of references to valid blocks.
system.cpu.dtb_walker_cache.tags.warmup_cycle            0                       # Cycle when the warmup percentage was hit.
system.cpu.dtb_walker_cache.tags.tag_accesses            0                       # Number of tag accesses
system.cpu.dtb_walker_cache.tags.data_accesses            0                       # Number of data accesses
system.cpu.dcache.pwrStateResidencyTicks::UNDEFINED 8854995037808                       # Cumulative time (in ticks) in various power states
system.cpu.dcache.demand_hits::.switch_cpus.data      1699303                       # number of demand (read+write) hits
system.cpu.dcache.demand_hits::total          1699303                       # number of demand (read+write) hits
system.cpu.dcache.overall_hits::.switch_cpus.data      1699303                       # number of overall hits
system.cpu.dcache.overall_hits::total         1699303                       # number of overall hits
system.cpu.dcache.demand_misses::.cpu.data            1                       # number of demand (read+write) misses
system.cpu.dcache.demand_misses::.switch_cpus.data       736336                       # number of demand (read+write) misses
system.cpu.dcache.demand_misses::total         736337                       # number of demand (read+write) misses
system.cpu.dcache.overall_misses::.cpu.data            1                       # number of overall misses
system.cpu.dcache.overall_misses::.switch_cpus.data       736336                       # number of overall misses
system.cpu.dcache.overall_misses::total        736337                       # number of overall misses
system.cpu.dcache.demand_miss_latency::.switch_cpus.data  39154689824                       # number of demand (read+write) miss cycles
system.cpu.dcache.demand_miss_latency::total  39154689824                       # number of demand (read+write) miss cycles
system.cpu.dcache.overall_miss_latency::.switch_cpus.data  39154689824                       # number of overall miss cycles
system.cpu.dcache.overall_miss_latency::total  39154689824                       # number of overall miss cycles
system.cpu.dcache.demand_accesses::.cpu.data            1                       # number of demand (read+write) accesses
system.cpu.dcache.demand_accesses::.switch_cpus.data      2435639                       # number of demand (read+write) accesses
system.cpu.dcache.demand_accesses::total      2435640                       # number of demand (read+write) accesses
system.cpu.dcache.overall_accesses::.cpu.data            1                       # number of overall (read+write) accesses
system.cpu.dcache.overall_accesses::.switch_cpus.data      2435639                       # number of overall (read+write) accesses
system.cpu.dcache.overall_accesses::total      2435640                       # number of overall (read+write) accesses
system.cpu.dcache.demand_miss_rate::.cpu.data            1                       # miss rate for demand accesses
system.cpu.dcache.demand_miss_rate::.switch_cpus.data     0.302317                       # miss rate for demand accesses
system.cpu.dcache.demand_miss_rate::total     0.302318                       # miss rate for demand accesses
system.cpu.dcache.overall_miss_rate::.cpu.data            1                       # miss rate for overall accesses
system.cpu.dcache.overall_miss_rate::.switch_cpus.data     0.302317                       # miss rate for overall accesses
system.cpu.dcache.overall_miss_rate::total     0.302318                       # miss rate for overall accesses
system.cpu.dcache.demand_avg_miss_latency::.switch_cpus.data 53175.031268                       # average overall miss latency
system.cpu.dcache.demand_avg_miss_latency::total 53174.959053                       # average overall miss latency
system.cpu.dcache.overall_avg_miss_latency::.switch_cpus.data 53175.031268                       # average overall miss latency
system.cpu.dcache.overall_avg_miss_latency::total 53174.959053                       # average overall miss latency
system.cpu.dcache.blocked_cycles::no_mshrs       137026                       # number of cycles access was blocked
system.cpu.dcache.blocked_cycles::no_targets            0                       # number of cycles access was blocked
system.cpu.dcache.blocked::no_mshrs              1722                       # number of cycles access was blocked
system.cpu.dcache.blocked::no_targets               0                       # number of cycles access was blocked
system.cpu.dcache.avg_blocked_cycles::no_mshrs    79.573751                       # average number of cycles each access was blocked
system.cpu.dcache.avg_blocked_cycles::no_targets          nan                       # average number of cycles each access was blocked
system.cpu.dcache.writebacks::.writebacks       413909                       # number of writebacks
system.cpu.dcache.writebacks::total            413909                       # number of writebacks
system.cpu.dcache.demand_mshr_hits::.switch_cpus.data       247989                       # number of demand (read+write) MSHR hits
system.cpu.dcache.demand_mshr_hits::total       247989                       # number of demand (read+write) MSHR hits
system.cpu.dcache.overall_mshr_hits::.switch_cpus.data       247989                       # number of overall MSHR hits
system.cpu.dcache.overall_mshr_hits::total       247989                       # number of overall MSHR hits
system.cpu.dcache.demand_mshr_misses::.switch_cpus.data       488347                       # number of demand (read+write) MSHR misses
system.cpu.dcache.demand_mshr_misses::total       488347                       # number of demand (read+write) MSHR misses
system.cpu.dcache.overall_mshr_misses::.switch_cpus.data       488347                       # number of overall MSHR misses
system.cpu.dcache.overall_mshr_misses::total       488347                       # number of overall MSHR misses
system.cpu.dcache.demand_mshr_miss_latency::.switch_cpus.data  23671595472                       # number of demand (read+write) MSHR miss cycles
system.cpu.dcache.demand_mshr_miss_latency::total  23671595472                       # number of demand (read+write) MSHR miss cycles
system.cpu.dcache.overall_mshr_miss_latency::.switch_cpus.data  23671595472                       # number of overall MSHR miss cycles
system.cpu.dcache.overall_mshr_miss_latency::total  23671595472                       # number of overall MSHR miss cycles
system.cpu.dcache.demand_mshr_miss_rate::.switch_cpus.data     0.200501                       # mshr miss rate for demand accesses
system.cpu.dcache.demand_mshr_miss_rate::total     0.200500                       # mshr miss rate for demand accesses
system.cpu.dcache.overall_mshr_miss_rate::.switch_cpus.data     0.200501                       # mshr miss rate for overall accesses
system.cpu.dcache.overall_mshr_miss_rate::total     0.200500                       # mshr miss rate for overall accesses
system.cpu.dcache.demand_avg_mshr_miss_latency::.switch_cpus.data 48472.900360                       # average overall mshr miss latency
system.cpu.dcache.demand_avg_mshr_miss_latency::total 48472.900360                       # average overall mshr miss latency
system.cpu.dcache.overall_avg_mshr_miss_latency::.switch_cpus.data 48472.900360                       # average overall mshr miss latency
system.cpu.dcache.overall_avg_mshr_miss_latency::total 48472.900360                       # average overall mshr miss latency
system.cpu.dcache.replacements                 487835                       # number of replacements
system.cpu.dcache.csize                      11231256                       # Cache sizes in total
system.cpu.dcache.ReadReq_hits::.switch_cpus.data      1096710                       # number of ReadReq hits
system.cpu.dcache.ReadReq_hits::total         1096710                       # number of ReadReq hits
system.cpu.dcache.ReadReq_misses::.cpu.data            1                       # number of ReadReq misses
system.cpu.dcache.ReadReq_misses::.switch_cpus.data       321994                       # number of ReadReq misses
system.cpu.dcache.ReadReq_misses::total        321995                       # number of ReadReq misses
system.cpu.dcache.ReadReq_miss_latency::.switch_cpus.data  21177945758                       # number of ReadReq miss cycles
system.cpu.dcache.ReadReq_miss_latency::total  21177945758                       # number of ReadReq miss cycles
system.cpu.dcache.ReadReq_accesses::.cpu.data            1                       # number of ReadReq accesses(hits+misses)
system.cpu.dcache.ReadReq_accesses::.switch_cpus.data      1418704                       # number of ReadReq accesses(hits+misses)
system.cpu.dcache.ReadReq_accesses::total      1418705                       # number of ReadReq accesses(hits+misses)
system.cpu.dcache.ReadReq_miss_rate::.cpu.data            1                       # miss rate for ReadReq accesses
system.cpu.dcache.ReadReq_miss_rate::.switch_cpus.data     0.226963                       # miss rate for ReadReq accesses
system.cpu.dcache.ReadReq_miss_rate::total     0.226964                       # miss rate for ReadReq accesses
system.cpu.dcache.ReadReq_avg_miss_latency::.switch_cpus.data 65771.243433                       # average ReadReq miss latency
system.cpu.dcache.ReadReq_avg_miss_latency::total 65771.039171                       # average ReadReq miss latency
system.cpu.dcache.ReadReq_mshr_hits::.switch_cpus.data       247989                       # number of ReadReq MSHR hits
system.cpu.dcache.ReadReq_mshr_hits::total       247989                       # number of ReadReq MSHR hits
system.cpu.dcache.ReadReq_mshr_misses::.switch_cpus.data        74005                       # number of ReadReq MSHR misses
system.cpu.dcache.ReadReq_mshr_misses::total        74005                       # number of ReadReq MSHR misses
system.cpu.dcache.ReadReq_mshr_miss_latency::.switch_cpus.data   5925225002                       # number of ReadReq MSHR miss cycles
system.cpu.dcache.ReadReq_mshr_miss_latency::total   5925225002                       # number of ReadReq MSHR miss cycles
system.cpu.dcache.ReadReq_mshr_miss_rate::.switch_cpus.data     0.052164                       # mshr miss rate for ReadReq accesses
system.cpu.dcache.ReadReq_mshr_miss_rate::total     0.052164                       # mshr miss rate for ReadReq accesses
system.cpu.dcache.ReadReq_avg_mshr_miss_latency::.switch_cpus.data 80065.198324                       # average ReadReq mshr miss latency
system.cpu.dcache.ReadReq_avg_mshr_miss_latency::total 80065.198324                       # average ReadReq mshr miss latency
system.cpu.dcache.WriteReq_hits::.switch_cpus.data       602593                       # number of WriteReq hits
system.cpu.dcache.WriteReq_hits::total         602593                       # number of WriteReq hits
system.cpu.dcache.WriteReq_misses::.switch_cpus.data       414342                       # number of WriteReq misses
system.cpu.dcache.WriteReq_misses::total       414342                       # number of WriteReq misses
system.cpu.dcache.WriteReq_miss_latency::.switch_cpus.data  17976744066                       # number of WriteReq miss cycles
system.cpu.dcache.WriteReq_miss_latency::total  17976744066                       # number of WriteReq miss cycles
system.cpu.dcache.WriteReq_accesses::.switch_cpus.data      1016935                       # number of WriteReq accesses(hits+misses)
system.cpu.dcache.WriteReq_accesses::total      1016935                       # number of WriteReq accesses(hits+misses)
system.cpu.dcache.WriteReq_miss_rate::.switch_cpus.data     0.407442                       # miss rate for WriteReq accesses
system.cpu.dcache.WriteReq_miss_rate::total     0.407442                       # miss rate for WriteReq accesses
system.cpu.dcache.WriteReq_avg_miss_latency::.switch_cpus.data 43386.246304                       # average WriteReq miss latency
system.cpu.dcache.WriteReq_avg_miss_latency::total 43386.246304                       # average WriteReq miss latency
system.cpu.dcache.WriteReq_mshr_misses::.switch_cpus.data       414342                       # number of WriteReq MSHR misses
system.cpu.dcache.WriteReq_mshr_misses::total       414342                       # number of WriteReq MSHR misses
system.cpu.dcache.WriteReq_mshr_miss_latency::.switch_cpus.data  17746370470                       # number of WriteReq MSHR miss cycles
system.cpu.dcache.WriteReq_mshr_miss_latency::total  17746370470                       # number of WriteReq MSHR miss cycles
system.cpu.dcache.WriteReq_mshr_miss_rate::.switch_cpus.data     0.407442                       # mshr miss rate for WriteReq accesses
system.cpu.dcache.WriteReq_mshr_miss_rate::total     0.407442                       # mshr miss rate for WriteReq accesses
system.cpu.dcache.WriteReq_avg_mshr_miss_latency::.switch_cpus.data 42830.247646                       # average WriteReq mshr miss latency
system.cpu.dcache.WriteReq_avg_mshr_miss_latency::total 42830.247646                       # average WriteReq mshr miss latency
system.cpu.dcache.tags.pwrStateResidencyTicks::UNDEFINED 8854995037808                       # Cumulative time (in ticks) in various power states
system.cpu.dcache.tags.tagsinuse             1.060438                       # Cycle average of tags in use
system.cpu.dcache.tags.total_refs             2187650                       # Total number of references to valid blocks.
system.cpu.dcache.tags.sampled_refs            488347                       # Sample count of references to valid blocks.
system.cpu.dcache.tags.avg_refs              4.479704                       # Average number of references to valid blocks.
system.cpu.dcache.tags.warmup_cycle      8836639525136                       # Cycle when the warmup percentage was hit.
system.cpu.dcache.tags.occ_blocks::.cpu.data     0.000392                       # Average occupied blocks per requestor
system.cpu.dcache.tags.occ_blocks::.switch_cpus.data     1.060047                       # Average occupied blocks per requestor
system.cpu.dcache.tags.occ_percent::.cpu.data     0.000001                       # Average percentage of cache occupancy
system.cpu.dcache.tags.occ_percent::.switch_cpus.data     0.002070                       # Average percentage of cache occupancy
system.cpu.dcache.tags.occ_percent::total     0.002071                       # Average percentage of cache occupancy
system.cpu.dcache.tags.occ_task_id_blocks::1024          512                       # Occupied blocks per task id
system.cpu.dcache.tags.age_task_id_blocks_1024::0          255                       # Occupied blocks per task id
system.cpu.dcache.tags.age_task_id_blocks_1024::1          253                       # Occupied blocks per task id
system.cpu.dcache.tags.age_task_id_blocks_1024::3            4                       # Occupied blocks per task id
system.cpu.dcache.tags.occ_task_id_percent::1024            1                       # Percentage of cache occupancy per task id
system.cpu.dcache.tags.tag_accesses          19973467                       # Number of tag accesses
system.cpu.dcache.tags.data_accesses         19973467                       # Number of data accesses

---------- End Simulation Statistics   ----------
