
---------- Begin Simulation Statistics ----------
final_tick                                58160718048                       # Number of ticks from beginning of simulation (restored from checkpoints and never reset)
host_inst_rate                                  25047                       # Simulator instruction rate (inst/s)
host_mem_usage                                 660308                       # Number of bytes of host memory used
host_op_rate                                    38949                       # Simulator op (including micro ops) rate (op/s)
host_seconds                                   798.50                       # Real time elapsed on the host
host_tick_rate                               72837123                       # Simulator tick rate (ticks/s)
sim_freq                                 1000000000000                       # Frequency of simulated ticks
sim_insts                                    20000003                       # Number of instructions simulated
sim_ops                                      31100648                       # Number of ops (including micro ops) simulated
sim_seconds                                  0.058161                       # Number of seconds simulated
sim_ticks                                 58160718048                       # Number of ticks simulated
system.cpu.cc_regfile_reads                  41921082                       # number of cc regfile reads
system.cpu.cc_regfile_writes                 22204662                       # number of cc regfile writes
system.cpu.committedInsts                    20000003                       # Number of Instructions Simulated
system.cpu.committedOps                      31100648                       # Number of Ops (including micro ops) Simulated
system.cpu.cpi                              10.460559                       # CPI: Cycles Per Instruction
system.cpu.cpi_total                        10.460559                       # CPI: Total CPI of All Threads
system.cpu.fp_regfile_reads                      1159                       # number of floating regfile reads
system.cpu.fp_regfile_writes                      431                       # number of floating regfile writes
system.cpu.idleCycles                           58911                       # Total number of cycles that the CPU has spent unscheduled due to idling
system.cpu.iew.branchMispredicts                31533                       # Number of branch mispredicts detected at execute
system.cpu.iew.exec_branches                  7574560                       # Number of branches executed
system.cpu.iew.exec_nop                             0                       # number of nop insts executed
system.cpu.iew.exec_rate                     1.180529                       # Inst execution rate
system.cpu.iew.exec_refs                    134799610                       # number of memory reference insts executed
system.cpu.iew.exec_stores                   66577034                       # Number of stores executed
system.cpu.iew.exec_swp                             0                       # number of swp insts executed
system.cpu.iew.iewBlockCycles                33090769                       # Number of cycles IEW is blocking
system.cpu.iew.iewDispLoadInsts              68259324                       # Number of dispatched load instructions
system.cpu.iew.iewDispNonSpecInsts            7865076                       # Number of dispatched non-speculative instructions
system.cpu.iew.iewDispSquashedInsts              1299                       # Number of squashed instructions skipped by dispatch
system.cpu.iew.iewDispStoreInsts             67107603                       # Number of dispatched store instructions
system.cpu.iew.iewDispatchedInsts           255421606                       # Number of instructions dispatched to IQ
system.cpu.iew.iewExecLoadInsts              68222576                       # Number of load instructions executed
system.cpu.iew.iewExecSquashedInsts            402765                       # Number of squashed instructions skipped in execute
system.cpu.iew.iewExecutedInsts             246979901                       # Number of executed instructions
system.cpu.iew.iewIQFullEvents                    105                       # Number of times the IQ has become full, causing a stall
system.cpu.iew.iewIdleCycles                        0                       # Number of cycles IEW is idle
system.cpu.iew.iewLSQFullEvents               3205287                       # Number of times the LSQ has become full, causing a stall
system.cpu.iew.iewSquashCycles                1930144                       # Number of cycles IEW is squashing
system.cpu.iew.iewUnblockCycles               2891572                       # Number of cycles IEW is unblocking
system.cpu.iew.memOrderViolationEvents            276                       # Number of memory order violations
system.cpu.iew.predictedNotTakenIncorrect         8742                       # Number of branches that were predicted not taken incorrectly
system.cpu.iew.predictedTakenIncorrect          22791                       # Number of branches that were predicted taken incorrectly
system.cpu.iew.wb_consumers                 112375371                       # num instructions consuming a value
system.cpu.iew.wb_count                     179432769                       # cumulative count of insts written-back
system.cpu.iew.wb_fanout                     0.814606                       # average fanout of values written-back
system.cpu.iew.wb_producers                  91541649                       # num instructions producing a value
system.cpu.iew.wb_rate                       0.857663                       # insts written-back per cycle
system.cpu.iew.wb_sent                      243950815                       # cumulative count of insts sent to commit
system.cpu.int_regfile_reads                464634448                       # number of integer regfile reads
system.cpu.int_regfile_writes               106859305                       # number of integer regfile writes
system.cpu.ipc                               0.095597                       # IPC: Instructions Per Cycle
system.cpu.ipc_total                         0.095597                       # IPC: Total IPC of All Threads
system.cpu.iq.FU_type_0::No_OpClass          62983866     25.46%     25.46% # Type of FU issued
system.cpu.iq.FU_type_0::IntAlu              49237228     19.90%     45.36% # Type of FU issued
system.cpu.iq.FU_type_0::IntMult                  102      0.00%     45.36% # Type of FU issued
system.cpu.iq.FU_type_0::IntDiv                    60      0.00%     45.36% # Type of FU issued
system.cpu.iq.FU_type_0::FloatAdd                   8      0.00%     45.36% # Type of FU issued
system.cpu.iq.FU_type_0::FloatCmp                   0      0.00%     45.36% # Type of FU issued
system.cpu.iq.FU_type_0::FloatCvt                   0      0.00%     45.36% # Type of FU issued
system.cpu.iq.FU_type_0::FloatMult                  0      0.00%     45.36% # Type of FU issued
system.cpu.iq.FU_type_0::FloatMultAcc               0      0.00%     45.36% # Type of FU issued
system.cpu.iq.FU_type_0::FloatDiv                   0      0.00%     45.36% # Type of FU issued
system.cpu.iq.FU_type_0::FloatMisc                  0      0.00%     45.36% # Type of FU issued
system.cpu.iq.FU_type_0::FloatSqrt                  0      0.00%     45.36% # Type of FU issued
system.cpu.iq.FU_type_0::SimdAdd                    0      0.00%     45.36% # Type of FU issued
system.cpu.iq.FU_type_0::SimdAddAcc                 0      0.00%     45.36% # Type of FU issued
system.cpu.iq.FU_type_0::SimdAlu                  123      0.00%     45.36% # Type of FU issued
system.cpu.iq.FU_type_0::SimdCmp                    0      0.00%     45.36% # Type of FU issued
system.cpu.iq.FU_type_0::SimdCvt                  120      0.00%     45.36% # Type of FU issued
system.cpu.iq.FU_type_0::SimdMisc                 172      0.00%     45.36% # Type of FU issued
system.cpu.iq.FU_type_0::SimdMult                   0      0.00%     45.36% # Type of FU issued
system.cpu.iq.FU_type_0::SimdMultAcc                0      0.00%     45.36% # Type of FU issued
system.cpu.iq.FU_type_0::SimdShift                  0      0.00%     45.36% # Type of FU issued
system.cpu.iq.FU_type_0::SimdShiftAcc               0      0.00%     45.36% # Type of FU issued
system.cpu.iq.FU_type_0::SimdDiv                    0      0.00%     45.36% # Type of FU issued
system.cpu.iq.FU_type_0::SimdSqrt                   0      0.00%     45.36% # Type of FU issued
system.cpu.iq.FU_type_0::SimdFloatAdd               0      0.00%     45.36% # Type of FU issued
system.cpu.iq.FU_type_0::SimdFloatAlu               0      0.00%     45.36% # Type of FU issued
system.cpu.iq.FU_type_0::SimdFloatCmp               0      0.00%     45.36% # Type of FU issued
system.cpu.iq.FU_type_0::SimdFloatCvt               0      0.00%     45.36% # Type of FU issued
system.cpu.iq.FU_type_0::SimdFloatDiv               0      0.00%     45.36% # Type of FU issued
system.cpu.iq.FU_type_0::SimdFloatMisc              0      0.00%     45.36% # Type of FU issued
system.cpu.iq.FU_type_0::SimdFloatMult              0      0.00%     45.36% # Type of FU issued
system.cpu.iq.FU_type_0::SimdFloatMultAcc            0      0.00%     45.36% # Type of FU issued
system.cpu.iq.FU_type_0::SimdFloatSqrt              0      0.00%     45.36% # Type of FU issued
system.cpu.iq.FU_type_0::SimdReduceAdd              0      0.00%     45.36% # Type of FU issued
system.cpu.iq.FU_type_0::SimdReduceAlu              0      0.00%     45.36% # Type of FU issued
system.cpu.iq.FU_type_0::SimdReduceCmp              0      0.00%     45.36% # Type of FU issued
system.cpu.iq.FU_type_0::SimdFloatReduceAdd            0      0.00%     45.36% # Type of FU issued
system.cpu.iq.FU_type_0::SimdFloatReduceCmp            0      0.00%     45.36% # Type of FU issued
system.cpu.iq.FU_type_0::SimdAes                    0      0.00%     45.36% # Type of FU issued
system.cpu.iq.FU_type_0::SimdAesMix                 0      0.00%     45.36% # Type of FU issued
system.cpu.iq.FU_type_0::SimdSha1Hash               0      0.00%     45.36% # Type of FU issued
system.cpu.iq.FU_type_0::SimdSha1Hash2              0      0.00%     45.36% # Type of FU issued
system.cpu.iq.FU_type_0::SimdSha256Hash             0      0.00%     45.36% # Type of FU issued
system.cpu.iq.FU_type_0::SimdSha256Hash2            0      0.00%     45.36% # Type of FU issued
system.cpu.iq.FU_type_0::SimdShaSigma2              0      0.00%     45.36% # Type of FU issued
system.cpu.iq.FU_type_0::SimdShaSigma3              0      0.00%     45.36% # Type of FU issued
system.cpu.iq.FU_type_0::SimdPredAlu                0      0.00%     45.36% # Type of FU issued
system.cpu.iq.FU_type_0::MemRead             68243427     27.59%     72.95% # Type of FU issued
system.cpu.iq.FU_type_0::MemWrite            66917299     27.05%    100.00% # Type of FU issued
system.cpu.iq.FU_type_0::FloatMemRead              94      0.00%    100.00% # Type of FU issued
system.cpu.iq.FU_type_0::FloatMemWrite            169      0.00%    100.00% # Type of FU issued
system.cpu.iq.FU_type_0::IprAccess                  0      0.00%    100.00% # Type of FU issued
system.cpu.iq.FU_type_0::InstPrefetch               0      0.00%    100.00% # Type of FU issued
system.cpu.iq.FU_type_0::total              247382668                       # Type of FU issued
system.cpu.iq.fp_alu_accesses                     758                       # Number of floating point alu accesses
system.cpu.iq.fp_inst_queue_reads                1492                       # Number of floating instruction queue reads
system.cpu.iq.fp_inst_queue_wakeup_accesses          712                       # Number of floating instruction queue wakeup accesses
system.cpu.iq.fp_inst_queue_writes                948                       # Number of floating instruction queue writes
system.cpu.iq.fu_busy_cnt                    17773276                       # FU busy when requested
system.cpu.iq.fu_busy_rate                   0.071845                       # FU busy rate (busy events/executed inst)
system.cpu.iq.fu_full::No_OpClass                   0      0.00%      0.00% # attempts to use FU when none available
system.cpu.iq.fu_full::IntAlu                   79795      0.45%      0.45% # attempts to use FU when none available
system.cpu.iq.fu_full::IntMult                      0      0.00%      0.45% # attempts to use FU when none available
system.cpu.iq.fu_full::IntDiv                       0      0.00%      0.45% # attempts to use FU when none available
system.cpu.iq.fu_full::FloatAdd                     0      0.00%      0.45% # attempts to use FU when none available
system.cpu.iq.fu_full::FloatCmp                     0      0.00%      0.45% # attempts to use FU when none available
system.cpu.iq.fu_full::FloatCvt                     0      0.00%      0.45% # attempts to use FU when none available
system.cpu.iq.fu_full::FloatMult                    0      0.00%      0.45% # attempts to use FU when none available
system.cpu.iq.fu_full::FloatMultAcc                 0      0.00%      0.45% # attempts to use FU when none available
system.cpu.iq.fu_full::FloatDiv                     0      0.00%      0.45% # attempts to use FU when none available
system.cpu.iq.fu_full::FloatMisc                    0      0.00%      0.45% # attempts to use FU when none available
system.cpu.iq.fu_full::FloatSqrt                    0      0.00%      0.45% # attempts to use FU when none available
system.cpu.iq.fu_full::SimdAdd                      0      0.00%      0.45% # attempts to use FU when none available
system.cpu.iq.fu_full::SimdAddAcc                   0      0.00%      0.45% # attempts to use FU when none available
system.cpu.iq.fu_full::SimdAlu                      9      0.00%      0.45% # attempts to use FU when none available
system.cpu.iq.fu_full::SimdCmp                      0      0.00%      0.45% # attempts to use FU when none available
system.cpu.iq.fu_full::SimdCvt                      0      0.00%      0.45% # attempts to use FU when none available
system.cpu.iq.fu_full::SimdMisc                     1      0.00%      0.45% # attempts to use FU when none available
system.cpu.iq.fu_full::SimdMult                     0      0.00%      0.45% # attempts to use FU when none available
system.cpu.iq.fu_full::SimdMultAcc                  0      0.00%      0.45% # attempts to use FU when none available
system.cpu.iq.fu_full::SimdShift                    0      0.00%      0.45% # attempts to use FU when none available
system.cpu.iq.fu_full::SimdShiftAcc                 0      0.00%      0.45% # attempts to use FU when none available
system.cpu.iq.fu_full::SimdDiv                      0      0.00%      0.45% # attempts to use FU when none available
system.cpu.iq.fu_full::SimdSqrt                     0      0.00%      0.45% # attempts to use FU when none available
system.cpu.iq.fu_full::SimdFloatAdd                 0      0.00%      0.45% # attempts to use FU when none available
system.cpu.iq.fu_full::SimdFloatAlu                 0      0.00%      0.45% # attempts to use FU when none available
system.cpu.iq.fu_full::SimdFloatCmp                 0      0.00%      0.45% # attempts to use FU when none available
system.cpu.iq.fu_full::SimdFloatCvt                 0      0.00%      0.45% # attempts to use FU when none available
system.cpu.iq.fu_full::SimdFloatDiv                 0      0.00%      0.45% # attempts to use FU when none available
system.cpu.iq.fu_full::SimdFloatMisc                0      0.00%      0.45% # attempts to use FU when none available
system.cpu.iq.fu_full::SimdFloatMult                0      0.00%      0.45% # attempts to use FU when none available
system.cpu.iq.fu_full::SimdFloatMultAcc             0      0.00%      0.45% # attempts to use FU when none available
system.cpu.iq.fu_full::SimdFloatSqrt                0      0.00%      0.45% # attempts to use FU when none available
system.cpu.iq.fu_full::SimdReduceAdd                0      0.00%      0.45% # attempts to use FU when none available
system.cpu.iq.fu_full::SimdReduceAlu                0      0.00%      0.45% # attempts to use FU when none available
system.cpu.iq.fu_full::SimdReduceCmp                0      0.00%      0.45% # attempts to use FU when none available
system.cpu.iq.fu_full::SimdFloatReduceAdd            0      0.00%      0.45% # attempts to use FU when none available
system.cpu.iq.fu_full::SimdFloatReduceCmp            0      0.00%      0.45% # attempts to use FU when none available
system.cpu.iq.fu_full::SimdAes                      0      0.00%      0.45% # attempts to use FU when none available
system.cpu.iq.fu_full::SimdAesMix                   0      0.00%      0.45% # attempts to use FU when none available
system.cpu.iq.fu_full::SimdSha1Hash                 0      0.00%      0.45% # attempts to use FU when none available
system.cpu.iq.fu_full::SimdSha1Hash2                0      0.00%      0.45% # attempts to use FU when none available
system.cpu.iq.fu_full::SimdSha256Hash               0      0.00%      0.45% # attempts to use FU when none available
system.cpu.iq.fu_full::SimdSha256Hash2              0      0.00%      0.45% # attempts to use FU when none available
system.cpu.iq.fu_full::SimdShaSigma2                0      0.00%      0.45% # attempts to use FU when none available
system.cpu.iq.fu_full::SimdShaSigma3                0      0.00%      0.45% # attempts to use FU when none available
system.cpu.iq.fu_full::SimdPredAlu                  0      0.00%      0.45% # attempts to use FU when none available
system.cpu.iq.fu_full::MemRead               15680850     88.23%     88.68% # attempts to use FU when none available
system.cpu.iq.fu_full::MemWrite               2012607     11.32%    100.00% # attempts to use FU when none available
system.cpu.iq.fu_full::FloatMemRead                 4      0.00%    100.00% # attempts to use FU when none available
system.cpu.iq.fu_full::FloatMemWrite               10      0.00%    100.00% # attempts to use FU when none available
system.cpu.iq.fu_full::IprAccess                    0      0.00%    100.00% # attempts to use FU when none available
system.cpu.iq.fu_full::InstPrefetch                 0      0.00%    100.00% # attempts to use FU when none available
system.cpu.iq.int_alu_accesses              202171320                       # Number of integer alu accesses
system.cpu.iq.int_inst_queue_reads          721690594                       # Number of integer instruction queue reads
system.cpu.iq.int_inst_queue_wakeup_accesses    179432057                       # Number of integer instruction queue wakeup accesses
system.cpu.iq.int_inst_queue_writes         479741857                       # Number of integer instruction queue writes
system.cpu.iq.iqInstsAdded                  247556476                       # Number of instructions added to the IQ (excludes non-spec)
system.cpu.iq.iqInstsIssued                 247382668                       # Number of instructions issued
system.cpu.iq.iqNonSpecInstsAdded             7865130                       # Number of non-speculative instructions added to the IQ
system.cpu.iq.iqSquashedInstsExamined       224320923                       # Number of squashed instructions iterated over during squash; mainly for profiling
system.cpu.iq.iqSquashedInstsIssued              1170                       # Number of squashed instructions issued
system.cpu.iq.iqSquashedNonSpecRemoved        7633800                       # Number of squashed non-spec instructions that were removed
system.cpu.iq.iqSquashedOperandsExamined     18508749                       # Number of squashed operands that are examined and possibly removed from graph
system.cpu.iq.issued_per_cycle::samples     209152306                       # Number of insts issued each cycle
system.cpu.iq.issued_per_cycle::mean         1.182787                       # Number of insts issued each cycle
system.cpu.iq.issued_per_cycle::stdev        2.378323                       # Number of insts issued each cycle
system.cpu.iq.issued_per_cycle::underflows            0      0.00%      0.00% # Number of insts issued each cycle
system.cpu.iq.issued_per_cycle::0           160031841     76.51%     76.51% # Number of insts issued each cycle
system.cpu.iq.issued_per_cycle::1             3536331      1.69%     78.21% # Number of insts issued each cycle
system.cpu.iq.issued_per_cycle::2             4289810      2.05%     80.26% # Number of insts issued each cycle
system.cpu.iq.issued_per_cycle::3             5262845      2.52%     82.77% # Number of insts issued each cycle
system.cpu.iq.issued_per_cycle::4             5432011      2.60%     85.37% # Number of insts issued each cycle
system.cpu.iq.issued_per_cycle::5             8517861      4.07%     89.44% # Number of insts issued each cycle
system.cpu.iq.issued_per_cycle::6             8446236      4.04%     93.48% # Number of insts issued each cycle
system.cpu.iq.issued_per_cycle::7             4599551      2.20%     95.68% # Number of insts issued each cycle
system.cpu.iq.issued_per_cycle::8             9035820      4.32%    100.00% # Number of insts issued each cycle
system.cpu.iq.issued_per_cycle::overflows            0      0.00%    100.00% # Number of insts issued each cycle
system.cpu.iq.issued_per_cycle::min_value            0                       # Number of insts issued each cycle
system.cpu.iq.issued_per_cycle::max_value            8                       # Number of insts issued each cycle
system.cpu.iq.issued_per_cycle::total       209152306                       # Number of insts issued each cycle
system.cpu.iq.rate                           1.182454                       # Inst issue rate
system.cpu.iq.vec_alu_accesses                      0                       # Number of vector alu accesses
system.cpu.iq.vec_inst_queue_reads                  0                       # Number of vector instruction queue reads
system.cpu.iq.vec_inst_queue_wakeup_accesses            0                       # Number of vector instruction queue wakeup accesses
system.cpu.iq.vec_inst_queue_writes                 0                       # Number of vector instruction queue writes
system.cpu.loadValPred.constant_verification_unit.constLoadHits       654172                       # Number of loads marked constant that hit in the CVU CAM
system.cpu.loadValPred.constant_verification_unit.constLoadMisses      4781335                       # Number of loads marked constant that missed in the CVU CAM
system.cpu.loadValPred.constant_verification_unit.numCAMReplacements      2808219                       # Number of CVU CAM entries replaced
system.cpu.loadValPred.constant_verification_unit.numLoadAccesses      5435507                       # Number of loads marked constant which accessed the CVU
system.cpu.loadValPred.constant_verification_unit.numStoreAccesses     65495133                       # Number of store instructions which accessed the CVU
system.cpu.loadValPred.constant_verification_unit.numStoreHits         6380                       # Number of stores that hit in the CVU CAM
system.cpu.loadValPred.constant_verification_unit.numStoreMisses     65488753                       # Number of stores that missed in the CVU CAM
system.cpu.loadValPred.numConstLoads          2717111                       # Number of loads classified as constant
system.cpu.loadValPred.numConstLoadsCorrect       654172                       # Number of constant loads correctly predicted
system.cpu.loadValPred.numConstLoadsMispredicted      4781335                       # Number of constant loads incorrectly predicted
system.cpu.loadValPred.numConstValOne           94096                       # Number of constant loads with value 1
system.cpu.loadValPred.numConstValZero         247228                       # Number of constant loads with value 0
system.cpu.loadValPred.numPredictableLoads      4623137                       # Number of loads classified as predictable
system.cpu.loadValPred.numPredictableLoadsCorrect      2862970                       # Number of loads correctly classified as predictable
system.cpu.loadValPred.numPredictableLoadsIncorrect       563292                       # Number of loads incorrectly classified as predictable
system.cpu.loadValPred.totalLoads            68259324                       # Total loads processed by the Load value predictor
system.cpu.memDep0.conflictingLoads            205466                       # Number of conflicting loads.
system.cpu.memDep0.conflictingStores           170548                       # Number of conflicting stores.
system.cpu.memDep0.insertedLoads             68259324                       # Number of loads inserted to the mem dependence unit.
system.cpu.memDep0.insertedStores            67107603                       # Number of stores inserted to the mem dependence unit.
system.cpu.misc_regfile_reads               149864167                       # number of misc regfile reads
system.cpu.misc_regfile_writes                      1                       # number of misc regfile writes
system.cpu.numCycles                        209211217                       # number of cpu cycles simulated
system.cpu.numWorkItemsCompleted                    0                       # number of work items this cpu completed
system.cpu.numWorkItemsStarted                      0                       # number of work items this cpu started
system.cpu.timesIdled                             303                       # Number of times that the entire CPU went into an idle state and unscheduled itself
system.cpu.workload.numSyscalls                   418                       # Number of system calls
system.membus.snoop_filter.hit_multi_requests            0                       # Number of requests hitting in the snoop filter with multiple (>1) holders of the requested data.
system.membus.snoop_filter.hit_multi_snoops            0                       # Number of snoops hitting in the snoop filter with multiple (>1) holders of the requested data.
system.membus.snoop_filter.hit_single_requests       749016                       # Number of requests hitting in the snoop filter with a single holder of the requested data.
system.membus.snoop_filter.hit_single_snoops            0                       # Number of snoops hitting in the snoop filter with a single holder of the requested data.
system.membus.snoop_filter.tot_requests       1502691                       # Total number of requests made to the snoop filter.
system.membus.snoop_filter.tot_snoops               0                       # Total number of snoops made to the snoop filter.
system.tol2bus.snoop_filter.hit_multi_requests            5                       # Number of requests hitting in the snoop filter with multiple (>1) holders of the requested data.
system.tol2bus.snoop_filter.hit_multi_snoops            0                       # Number of snoops hitting in the snoop filter with multiple (>1) holders of the requested data.
system.tol2bus.snoop_filter.hit_single_requests       752726                       # Number of requests hitting in the snoop filter with a single holder of the requested data.
system.tol2bus.snoop_filter.hit_single_snoops          594                       # Number of snoops hitting in the snoop filter with a single holder of the requested data.
system.tol2bus.snoop_filter.tot_requests      1506417                       # Total number of requests made to the snoop filter.
system.tol2bus.snoop_filter.tot_snoops            594                       # Total number of snoops made to the snoop filter.
system.membus.trans_dist::ReadResp             319371                       # Transaction distribution
system.membus.trans_dist::WritebackDirty       440403                       # Transaction distribution
system.membus.trans_dist::CleanEvict           308613                       # Transaction distribution
system.membus.trans_dist::ReadExReq            434304                       # Transaction distribution
system.membus.trans_dist::ReadExResp           434304                       # Transaction distribution
system.membus.trans_dist::ReadSharedReq        319371                       # Transaction distribution
system.membus.pkt_count_system.l2.mem_side_port::system.mem_ctrls.port      2256366                       # Packet count per connected requestor and responder (bytes)
system.membus.pkt_count_system.l2.mem_side_port::total      2256366                       # Packet count per connected requestor and responder (bytes)
system.membus.pkt_count::total                2256366                       # Packet count per connected requestor and responder (bytes)
system.membus.pkt_size_system.l2.mem_side_port::system.mem_ctrls.port     76420992                       # Cumulative packet size per connected requestor and responder (bytes)
system.membus.pkt_size_system.l2.mem_side_port::total     76420992                       # Cumulative packet size per connected requestor and responder (bytes)
system.membus.pkt_size::total                76420992                       # Cumulative packet size per connected requestor and responder (bytes)
system.membus.snoops                                0                       # Total snoops (count)
system.membus.snoopTraffic                          0                       # Total snoop traffic (bytes)
system.membus.snoop_fanout::samples            753675                       # Request fanout histogram
system.membus.snoop_fanout::mean                    0                       # Request fanout histogram
system.membus.snoop_fanout::stdev                   0                       # Request fanout histogram
system.membus.snoop_fanout::underflows              0      0.00%      0.00% # Request fanout histogram
system.membus.snoop_fanout::0                  753675    100.00%    100.00% # Request fanout histogram
system.membus.snoop_fanout::1                       0      0.00%    100.00% # Request fanout histogram
system.membus.snoop_fanout::overflows               0      0.00%    100.00% # Request fanout histogram
system.membus.snoop_fanout::min_value               0                       # Request fanout histogram
system.membus.snoop_fanout::max_value               0                       # Request fanout histogram
system.membus.snoop_fanout::total              753675                       # Request fanout histogram
system.membus.reqLayer2.occupancy          3877575954                       # Layer occupancy (ticks)
system.membus.reqLayer2.utilization               6.7                       # Layer utilization (%)
system.membus.respLayer1.occupancy         3976100584                       # Layer occupancy (ticks)
system.membus.respLayer1.utilization              6.8                       # Layer utilization (%)
system.membus.power_state.pwrStateResidencyTicks::UNDEFINED  58160718048                       # Cumulative time (in ticks) in various power states
system.tol2bus.trans_dist::ReadResp            319378                       # Transaction distribution
system.tol2bus.trans_dist::WritebackDirty       882659                       # Transaction distribution
system.tol2bus.trans_dist::WritebackClean           45                       # Transaction distribution
system.tol2bus.trans_dist::CleanEvict          619632                       # Transaction distribution
system.tol2bus.trans_dist::ReadExReq           434313                       # Transaction distribution
system.tol2bus.trans_dist::ReadExResp          434313                       # Transaction distribution
system.tol2bus.trans_dist::ReadCleanReq           498                       # Transaction distribution
system.tol2bus.trans_dist::ReadSharedReq       318880                       # Transaction distribution
system.tol2bus.pkt_count_system.cpu.icache.mem_side_port::system.l2.cpu_side_port         1041                       # Packet count per connected requestor and responder (bytes)
system.tol2bus.pkt_count_system.cpu.dcache.mem_side_port::system.l2.cpu_side_port      2259067                       # Packet count per connected requestor and responder (bytes)
system.tol2bus.pkt_count::total               2260108                       # Packet count per connected requestor and responder (bytes)
system.tol2bus.pkt_size_system.cpu.icache.mem_side_port::system.l2.cpu_side_port        34752                       # Cumulative packet size per connected requestor and responder (bytes)
system.tol2bus.pkt_size_system.cpu.dcache.mem_side_port::system.l2.cpu_side_port     76508736                       # Cumulative packet size per connected requestor and responder (bytes)
system.tol2bus.pkt_size::total               76543488                       # Cumulative packet size per connected requestor and responder (bytes)
system.tol2bus.snoops                          749610                       # Total snoops (count)
system.tol2bus.snoopTraffic                  28185792                       # Total snoop traffic (bytes)
system.tol2bus.snoop_fanout::samples          1503301                       # Request fanout histogram
system.tol2bus.snoop_fanout::mean            0.000398                       # Request fanout histogram
system.tol2bus.snoop_fanout::stdev           0.019957                       # Request fanout histogram
system.tol2bus.snoop_fanout::underflows             0      0.00%      0.00% # Request fanout histogram
system.tol2bus.snoop_fanout::0                1502702     99.96%     99.96% # Request fanout histogram
system.tol2bus.snoop_fanout::1                    599      0.04%    100.00% # Request fanout histogram
system.tol2bus.snoop_fanout::2                      0      0.00%    100.00% # Request fanout histogram
system.tol2bus.snoop_fanout::3                      0      0.00%    100.00% # Request fanout histogram
system.tol2bus.snoop_fanout::4                      0      0.00%    100.00% # Request fanout histogram
system.tol2bus.snoop_fanout::overflows              0      0.00%    100.00% # Request fanout histogram
system.tol2bus.snoop_fanout::min_value              0                       # Request fanout histogram
system.tol2bus.snoop_fanout::max_value              1                       # Request fanout histogram
system.tol2bus.snoop_fanout::total            1503301                       # Request fanout histogram
system.tol2bus.reqLayer0.occupancy          664703282                       # Layer occupancy (ticks)
system.tol2bus.reqLayer0.utilization              1.1                       # Layer utilization (%)
system.tol2bus.respLayer1.occupancy         628163239                       # Layer occupancy (ticks)
system.tol2bus.respLayer1.utilization             1.1                       # Layer utilization (%)
system.tol2bus.respLayer0.occupancy            415332                       # Layer occupancy (ticks)
system.tol2bus.respLayer0.utilization             0.0                       # Layer utilization (%)
system.tol2bus.power_state.pwrStateResidencyTicks::UNDEFINED  58160718048                       # Cumulative time (in ticks) in various power states
system.voltage_domain.voltage                       1                       # Voltage in Volts
system.clk_domain.clock                          1000                       # Clock period in ticks
system.l2.demand_hits::.cpu.inst                    3                       # number of demand (read+write) hits
system.l2.demand_hits::.cpu.data                   12                       # number of demand (read+write) hits
system.l2.demand_hits::total                       15                       # number of demand (read+write) hits
system.l2.overall_hits::.cpu.inst                   3                       # number of overall hits
system.l2.overall_hits::.cpu.data                  12                       # number of overall hits
system.l2.overall_hits::total                      15                       # number of overall hits
system.l2.demand_misses::.cpu.inst                495                       # number of demand (read+write) misses
system.l2.demand_misses::.cpu.data             753181                       # number of demand (read+write) misses
system.l2.demand_misses::total                 753676                       # number of demand (read+write) misses
system.l2.overall_misses::.cpu.inst               495                       # number of overall misses
system.l2.overall_misses::.cpu.data            753181                       # number of overall misses
system.l2.overall_misses::total                753676                       # number of overall misses
system.l2.demand_miss_latency::.cpu.inst     35184514                       # number of demand (read+write) miss cycles
system.l2.demand_miss_latency::.cpu.data  53138318896                       # number of demand (read+write) miss cycles
system.l2.demand_miss_latency::total      53173503410                       # number of demand (read+write) miss cycles
system.l2.overall_miss_latency::.cpu.inst     35184514                       # number of overall miss cycles
system.l2.overall_miss_latency::.cpu.data  53138318896                       # number of overall miss cycles
system.l2.overall_miss_latency::total     53173503410                       # number of overall miss cycles
system.l2.demand_accesses::.cpu.inst              498                       # number of demand (read+write) accesses
system.l2.demand_accesses::.cpu.data           753193                       # number of demand (read+write) accesses
system.l2.demand_accesses::total               753691                       # number of demand (read+write) accesses
system.l2.overall_accesses::.cpu.inst             498                       # number of overall (read+write) accesses
system.l2.overall_accesses::.cpu.data          753193                       # number of overall (read+write) accesses
system.l2.overall_accesses::total              753691                       # number of overall (read+write) accesses
system.l2.demand_miss_rate::.cpu.inst        0.993976                       # miss rate for demand accesses
system.l2.demand_miss_rate::.cpu.data        0.999984                       # miss rate for demand accesses
system.l2.demand_miss_rate::total            0.999980                       # miss rate for demand accesses
system.l2.overall_miss_rate::.cpu.inst       0.993976                       # miss rate for overall accesses
system.l2.overall_miss_rate::.cpu.data       0.999984                       # miss rate for overall accesses
system.l2.overall_miss_rate::total           0.999980                       # miss rate for overall accesses
system.l2.demand_avg_miss_latency::.cpu.inst 71079.826263                       # average overall miss latency
system.l2.demand_avg_miss_latency::.cpu.data 70551.857915                       # average overall miss latency
system.l2.demand_avg_miss_latency::total 70552.204674                       # average overall miss latency
system.l2.overall_avg_miss_latency::.cpu.inst 71079.826263                       # average overall miss latency
system.l2.overall_avg_miss_latency::.cpu.data 70551.857915                       # average overall miss latency
system.l2.overall_avg_miss_latency::total 70552.204674                       # average overall miss latency
system.l2.blocked_cycles::no_mshrs                  0                       # number of cycles access was blocked
system.l2.blocked_cycles::no_targets                0                       # number of cycles access was blocked
system.l2.blocked::no_mshrs                         0                       # number of cycles access was blocked
system.l2.blocked::no_targets                       0                       # number of cycles access was blocked
system.l2.avg_blocked_cycles::no_mshrs            nan                       # average number of cycles each access was blocked
system.l2.avg_blocked_cycles::no_targets          nan                       # average number of cycles each access was blocked
system.l2.writebacks::.writebacks              440403                       # number of writebacks
system.l2.writebacks::total                    440403                       # number of writebacks
system.l2.demand_mshr_hits::.cpu.data               1                       # number of demand (read+write) MSHR hits
system.l2.demand_mshr_hits::total                   1                       # number of demand (read+write) MSHR hits
system.l2.overall_mshr_hits::.cpu.data              1                       # number of overall MSHR hits
system.l2.overall_mshr_hits::total                  1                       # number of overall MSHR hits
system.l2.demand_mshr_misses::.cpu.inst           495                       # number of demand (read+write) MSHR misses
system.l2.demand_mshr_misses::.cpu.data        753180                       # number of demand (read+write) MSHR misses
system.l2.demand_mshr_misses::total            753675                       # number of demand (read+write) MSHR misses
system.l2.overall_mshr_misses::.cpu.inst          495                       # number of overall MSHR misses
system.l2.overall_mshr_misses::.cpu.data       753180                       # number of overall MSHR misses
system.l2.overall_mshr_misses::total           753675                       # number of overall MSHR misses
system.l2.demand_mshr_miss_latency::.cpu.inst     32365828                       # number of demand (read+write) MSHR miss cycles
system.l2.demand_mshr_miss_latency::.cpu.data  48848935850                       # number of demand (read+write) MSHR miss cycles
system.l2.demand_mshr_miss_latency::total  48881301678                       # number of demand (read+write) MSHR miss cycles
system.l2.overall_mshr_miss_latency::.cpu.inst     32365828                       # number of overall MSHR miss cycles
system.l2.overall_mshr_miss_latency::.cpu.data  48848935850                       # number of overall MSHR miss cycles
system.l2.overall_mshr_miss_latency::total  48881301678                       # number of overall MSHR miss cycles
system.l2.demand_mshr_miss_rate::.cpu.inst     0.993976                       # mshr miss rate for demand accesses
system.l2.demand_mshr_miss_rate::.cpu.data     0.999983                       # mshr miss rate for demand accesses
system.l2.demand_mshr_miss_rate::total       0.999979                       # mshr miss rate for demand accesses
system.l2.overall_mshr_miss_rate::.cpu.inst     0.993976                       # mshr miss rate for overall accesses
system.l2.overall_mshr_miss_rate::.cpu.data     0.999983                       # mshr miss rate for overall accesses
system.l2.overall_mshr_miss_rate::total      0.999979                       # mshr miss rate for overall accesses
system.l2.demand_avg_mshr_miss_latency::.cpu.inst 65385.511111                       # average overall mshr miss latency
system.l2.demand_avg_mshr_miss_latency::.cpu.data 64856.921121                       # average overall mshr miss latency
system.l2.demand_avg_mshr_miss_latency::total 64857.268289                       # average overall mshr miss latency
system.l2.overall_avg_mshr_miss_latency::.cpu.inst 65385.511111                       # average overall mshr miss latency
system.l2.overall_avg_mshr_miss_latency::.cpu.data 64856.921121                       # average overall mshr miss latency
system.l2.overall_avg_mshr_miss_latency::total 64857.268289                       # average overall mshr miss latency
system.l2.replacements                         749610                       # number of replacements
system.l2.WritebackDirty_hits::.writebacks       442256                       # number of WritebackDirty hits
system.l2.WritebackDirty_hits::total           442256                       # number of WritebackDirty hits
system.l2.WritebackDirty_accesses::.writebacks       442256                       # number of WritebackDirty accesses(hits+misses)
system.l2.WritebackDirty_accesses::total       442256                       # number of WritebackDirty accesses(hits+misses)
system.l2.WritebackClean_hits::.writebacks           45                       # number of WritebackClean hits
system.l2.WritebackClean_hits::total               45                       # number of WritebackClean hits
system.l2.WritebackClean_accesses::.writebacks           45                       # number of WritebackClean accesses(hits+misses)
system.l2.WritebackClean_accesses::total           45                       # number of WritebackClean accesses(hits+misses)
system.l2.ReadExReq_hits::.cpu.data                 9                       # number of ReadExReq hits
system.l2.ReadExReq_hits::total                     9                       # number of ReadExReq hits
system.l2.ReadExReq_misses::.cpu.data          434304                       # number of ReadExReq misses
system.l2.ReadExReq_misses::total              434304                       # number of ReadExReq misses
system.l2.ReadExReq_miss_latency::.cpu.data  30551504722                       # number of ReadExReq miss cycles
system.l2.ReadExReq_miss_latency::total   30551504722                       # number of ReadExReq miss cycles
system.l2.ReadExReq_accesses::.cpu.data        434313                       # number of ReadExReq accesses(hits+misses)
system.l2.ReadExReq_accesses::total            434313                       # number of ReadExReq accesses(hits+misses)
system.l2.ReadExReq_miss_rate::.cpu.data     0.999979                       # miss rate for ReadExReq accesses
system.l2.ReadExReq_miss_rate::total         0.999979                       # miss rate for ReadExReq accesses
system.l2.ReadExReq_avg_miss_latency::.cpu.data 70345.897625                       # average ReadExReq miss latency
system.l2.ReadExReq_avg_miss_latency::total 70345.897625                       # average ReadExReq miss latency
system.l2.ReadExReq_mshr_misses::.cpu.data       434304                       # number of ReadExReq MSHR misses
system.l2.ReadExReq_mshr_misses::total         434304                       # number of ReadExReq MSHR misses
system.l2.ReadExReq_mshr_miss_latency::.cpu.data  28076873612                       # number of ReadExReq MSHR miss cycles
system.l2.ReadExReq_mshr_miss_latency::total  28076873612                       # number of ReadExReq MSHR miss cycles
system.l2.ReadExReq_mshr_miss_rate::.cpu.data     0.999979                       # mshr miss rate for ReadExReq accesses
system.l2.ReadExReq_mshr_miss_rate::total     0.999979                       # mshr miss rate for ReadExReq accesses
system.l2.ReadExReq_avg_mshr_miss_latency::.cpu.data 64647.973797                       # average ReadExReq mshr miss latency
system.l2.ReadExReq_avg_mshr_miss_latency::total 64647.973797                       # average ReadExReq mshr miss latency
system.l2.ReadCleanReq_hits::.cpu.inst              3                       # number of ReadCleanReq hits
system.l2.ReadCleanReq_hits::total                  3                       # number of ReadCleanReq hits
system.l2.ReadCleanReq_misses::.cpu.inst          495                       # number of ReadCleanReq misses
system.l2.ReadCleanReq_misses::total              495                       # number of ReadCleanReq misses
system.l2.ReadCleanReq_miss_latency::.cpu.inst     35184514                       # number of ReadCleanReq miss cycles
system.l2.ReadCleanReq_miss_latency::total     35184514                       # number of ReadCleanReq miss cycles
system.l2.ReadCleanReq_accesses::.cpu.inst          498                       # number of ReadCleanReq accesses(hits+misses)
system.l2.ReadCleanReq_accesses::total            498                       # number of ReadCleanReq accesses(hits+misses)
system.l2.ReadCleanReq_miss_rate::.cpu.inst     0.993976                       # miss rate for ReadCleanReq accesses
system.l2.ReadCleanReq_miss_rate::total      0.993976                       # miss rate for ReadCleanReq accesses
system.l2.ReadCleanReq_avg_miss_latency::.cpu.inst 71079.826263                       # average ReadCleanReq miss latency
system.l2.ReadCleanReq_avg_miss_latency::total 71079.826263                       # average ReadCleanReq miss latency
system.l2.ReadCleanReq_mshr_misses::.cpu.inst          495                       # number of ReadCleanReq MSHR misses
system.l2.ReadCleanReq_mshr_misses::total          495                       # number of ReadCleanReq MSHR misses
system.l2.ReadCleanReq_mshr_miss_latency::.cpu.inst     32365828                       # number of ReadCleanReq MSHR miss cycles
system.l2.ReadCleanReq_mshr_miss_latency::total     32365828                       # number of ReadCleanReq MSHR miss cycles
system.l2.ReadCleanReq_mshr_miss_rate::.cpu.inst     0.993976                       # mshr miss rate for ReadCleanReq accesses
system.l2.ReadCleanReq_mshr_miss_rate::total     0.993976                       # mshr miss rate for ReadCleanReq accesses
system.l2.ReadCleanReq_avg_mshr_miss_latency::.cpu.inst 65385.511111                       # average ReadCleanReq mshr miss latency
system.l2.ReadCleanReq_avg_mshr_miss_latency::total 65385.511111                       # average ReadCleanReq mshr miss latency
system.l2.ReadSharedReq_hits::.cpu.data             3                       # number of ReadSharedReq hits
system.l2.ReadSharedReq_hits::total                 3                       # number of ReadSharedReq hits
system.l2.ReadSharedReq_misses::.cpu.data       318877                       # number of ReadSharedReq misses
system.l2.ReadSharedReq_misses::total          318877                       # number of ReadSharedReq misses
system.l2.ReadSharedReq_miss_latency::.cpu.data  22586814174                       # number of ReadSharedReq miss cycles
system.l2.ReadSharedReq_miss_latency::total  22586814174                       # number of ReadSharedReq miss cycles
system.l2.ReadSharedReq_accesses::.cpu.data       318880                       # number of ReadSharedReq accesses(hits+misses)
system.l2.ReadSharedReq_accesses::total        318880                       # number of ReadSharedReq accesses(hits+misses)
system.l2.ReadSharedReq_miss_rate::.cpu.data     0.999991                       # miss rate for ReadSharedReq accesses
system.l2.ReadSharedReq_miss_rate::total     0.999991                       # miss rate for ReadSharedReq accesses
system.l2.ReadSharedReq_avg_miss_latency::.cpu.data 70832.371648                       # average ReadSharedReq miss latency
system.l2.ReadSharedReq_avg_miss_latency::total 70832.371648                       # average ReadSharedReq miss latency
system.l2.ReadSharedReq_mshr_hits::.cpu.data            1                       # number of ReadSharedReq MSHR hits
system.l2.ReadSharedReq_mshr_hits::total            1                       # number of ReadSharedReq MSHR hits
system.l2.ReadSharedReq_mshr_misses::.cpu.data       318876                       # number of ReadSharedReq MSHR misses
system.l2.ReadSharedReq_mshr_misses::total       318876                       # number of ReadSharedReq MSHR misses
system.l2.ReadSharedReq_mshr_miss_latency::.cpu.data  20772062238                       # number of ReadSharedReq MSHR miss cycles
system.l2.ReadSharedReq_mshr_miss_latency::total  20772062238                       # number of ReadSharedReq MSHR miss cycles
system.l2.ReadSharedReq_mshr_miss_rate::.cpu.data     0.999987                       # mshr miss rate for ReadSharedReq accesses
system.l2.ReadSharedReq_mshr_miss_rate::total     0.999987                       # mshr miss rate for ReadSharedReq accesses
system.l2.ReadSharedReq_avg_mshr_miss_latency::.cpu.data 65141.504027                       # average ReadSharedReq mshr miss latency
system.l2.ReadSharedReq_avg_mshr_miss_latency::total 65141.504027                       # average ReadSharedReq mshr miss latency
system.l2.power_state.pwrStateResidencyTicks::UNDEFINED  58160718048                       # Cumulative time (in ticks) in various power states
system.l2.tags.tagsinuse                  3219.207316                       # Cycle average of tags in use
system.l2.tags.total_refs                     1506411                       # Total number of references to valid blocks.
system.l2.tags.sampled_refs                    753706                       # Sample count of references to valid blocks.
system.l2.tags.avg_refs                      1.998672                       # Average number of references to valid blocks.
system.l2.tags.warmup_cycle                     77000                       # Cycle when the warmup percentage was hit.
system.l2.tags.occ_blocks::.writebacks       0.312795                       # Average occupied blocks per requestor
system.l2.tags.occ_blocks::.cpu.inst        83.366131                       # Average occupied blocks per requestor
system.l2.tags.occ_blocks::.cpu.data      3135.528390                       # Average occupied blocks per requestor
system.l2.tags.occ_percent::.writebacks      0.000076                       # Average percentage of cache occupancy
system.l2.tags.occ_percent::.cpu.inst        0.020353                       # Average percentage of cache occupancy
system.l2.tags.occ_percent::.cpu.data        0.765510                       # Average percentage of cache occupancy
system.l2.tags.occ_percent::total            0.785939                       # Average percentage of cache occupancy
system.l2.tags.occ_task_id_blocks::1024          4096                       # Occupied blocks per task id
system.l2.tags.age_task_id_blocks_1024::0           25                       # Occupied blocks per task id
system.l2.tags.age_task_id_blocks_1024::1          445                       # Occupied blocks per task id
system.l2.tags.age_task_id_blocks_1024::2         3625                       # Occupied blocks per task id
system.l2.tags.age_task_id_blocks_1024::3            1                       # Occupied blocks per task id
system.l2.tags.occ_task_id_percent::1024            1                       # Percentage of cache occupancy per task id
system.l2.tags.tag_accesses                  12805002                       # Number of tag accesses
system.l2.tags.data_accesses                 12805002                       # Number of data accesses
system.l2.tags.power_state.pwrStateResidencyTicks::UNDEFINED  58160718048                       # Cumulative time (in ticks) in various power states
system.cpu_voltage_domain.voltage                   1                       # Voltage in Volts
system.mem_ctrls.avgPriority_.writebacks::samples    440403.00                       # Average QoS priority value for accepted requests
system.mem_ctrls.avgPriority_.cpu.inst::samples       495.00                       # Average QoS priority value for accepted requests
system.mem_ctrls.avgPriority_.cpu.data::samples    753180.00                       # Average QoS priority value for accepted requests
system.mem_ctrls.priorityMinLatency      0.000000018750                       # per QoS priority minimum request to response latency (s)
system.mem_ctrls.priorityMaxLatency      0.001313029112                       # per QoS priority maximum request to response latency (s)
system.mem_ctrls.numReadWriteTurnArounds        27515                       # Number of turnarounds from READ to WRITE
system.mem_ctrls.numWriteReadTurnArounds        27515                       # Number of turnarounds from WRITE to READ
system.mem_ctrls.numStayReadState             1920443                       # Number of times bus staying in READ state
system.mem_ctrls.numStayWriteState             413379                       # Number of times bus staying in WRITE state
system.mem_ctrls.readReqs                      753675                       # Number of read requests accepted
system.mem_ctrls.writeReqs                     440403                       # Number of write requests accepted
system.mem_ctrls.readBursts                    753675                       # Number of controller read bursts, including those serviced by the write queue
system.mem_ctrls.writeBursts                   440403                       # Number of controller write bursts, including those merged in the write queue
system.mem_ctrls.servicedByWrQ                      0                       # Number of controller read bursts serviced by the write queue
system.mem_ctrls.mergedWrBursts                     0                       # Number of controller write bursts merged with an existing one
system.mem_ctrls.neitherReadNorWriteReqs            0                       # Number of requests that are neither read nor write
system.mem_ctrls.avgRdQLen                       1.07                       # Average read queue length when enqueuing
system.mem_ctrls.avgWrQLen                      25.77                       # Average write queue length when enqueuing
system.mem_ctrls.numRdRetry                         0                       # Number of times read queue was full causing retry
system.mem_ctrls.numWrRetry                         0                       # Number of times write queue was full causing retry
system.mem_ctrls.readPktSize::0                     0                       # Read request sizes (log2)
system.mem_ctrls.readPktSize::1                     0                       # Read request sizes (log2)
system.mem_ctrls.readPktSize::2                     0                       # Read request sizes (log2)
system.mem_ctrls.readPktSize::3                     0                       # Read request sizes (log2)
system.mem_ctrls.readPktSize::4                     0                       # Read request sizes (log2)
system.mem_ctrls.readPktSize::5                     0                       # Read request sizes (log2)
system.mem_ctrls.readPktSize::6                753675                       # Read request sizes (log2)
system.mem_ctrls.writePktSize::0                    0                       # Write request sizes (log2)
system.mem_ctrls.writePktSize::1                    0                       # Write request sizes (log2)
system.mem_ctrls.writePktSize::2                    0                       # Write request sizes (log2)
system.mem_ctrls.writePktSize::3                    0                       # Write request sizes (log2)
system.mem_ctrls.writePktSize::4                    0                       # Write request sizes (log2)
system.mem_ctrls.writePktSize::5                    0                       # Write request sizes (log2)
system.mem_ctrls.writePktSize::6               440403                       # Write request sizes (log2)
system.mem_ctrls.rdQLenPdf::0                  719140                       # What read queue length does an incoming req see
system.mem_ctrls.rdQLenPdf::1                   26786                       # What read queue length does an incoming req see
system.mem_ctrls.rdQLenPdf::2                    4865                       # What read queue length does an incoming req see
system.mem_ctrls.rdQLenPdf::3                    2879                       # What read queue length does an incoming req see
system.mem_ctrls.rdQLenPdf::4                       5                       # What read queue length does an incoming req see
system.mem_ctrls.rdQLenPdf::5                       0                       # What read queue length does an incoming req see
system.mem_ctrls.rdQLenPdf::6                       0                       # What read queue length does an incoming req see
system.mem_ctrls.rdQLenPdf::7                       0                       # What read queue length does an incoming req see
system.mem_ctrls.rdQLenPdf::8                       0                       # What read queue length does an incoming req see
system.mem_ctrls.rdQLenPdf::9                       0                       # What read queue length does an incoming req see
system.mem_ctrls.rdQLenPdf::10                      0                       # What read queue length does an incoming req see
system.mem_ctrls.rdQLenPdf::11                      0                       # What read queue length does an incoming req see
system.mem_ctrls.rdQLenPdf::12                      0                       # What read queue length does an incoming req see
system.mem_ctrls.rdQLenPdf::13                      0                       # What read queue length does an incoming req see
system.mem_ctrls.rdQLenPdf::14                      0                       # What read queue length does an incoming req see
system.mem_ctrls.rdQLenPdf::15                      0                       # What read queue length does an incoming req see
system.mem_ctrls.rdQLenPdf::16                      0                       # What read queue length does an incoming req see
system.mem_ctrls.rdQLenPdf::17                      0                       # What read queue length does an incoming req see
system.mem_ctrls.rdQLenPdf::18                      0                       # What read queue length does an incoming req see
system.mem_ctrls.rdQLenPdf::19                      0                       # What read queue length does an incoming req see
system.mem_ctrls.rdQLenPdf::20                      0                       # What read queue length does an incoming req see
system.mem_ctrls.rdQLenPdf::21                      0                       # What read queue length does an incoming req see
system.mem_ctrls.rdQLenPdf::22                      0                       # What read queue length does an incoming req see
system.mem_ctrls.rdQLenPdf::23                      0                       # What read queue length does an incoming req see
system.mem_ctrls.rdQLenPdf::24                      0                       # What read queue length does an incoming req see
system.mem_ctrls.rdQLenPdf::25                      0                       # What read queue length does an incoming req see
system.mem_ctrls.rdQLenPdf::26                      0                       # What read queue length does an incoming req see
system.mem_ctrls.rdQLenPdf::27                      0                       # What read queue length does an incoming req see
system.mem_ctrls.rdQLenPdf::28                      0                       # What read queue length does an incoming req see
system.mem_ctrls.rdQLenPdf::29                      0                       # What read queue length does an incoming req see
system.mem_ctrls.rdQLenPdf::30                      0                       # What read queue length does an incoming req see
system.mem_ctrls.rdQLenPdf::31                      0                       # What read queue length does an incoming req see
system.mem_ctrls.wrQLenPdf::0                       1                       # What write queue length does an incoming req see
system.mem_ctrls.wrQLenPdf::1                       1                       # What write queue length does an incoming req see
system.mem_ctrls.wrQLenPdf::2                       1                       # What write queue length does an incoming req see
system.mem_ctrls.wrQLenPdf::3                       1                       # What write queue length does an incoming req see
system.mem_ctrls.wrQLenPdf::4                       1                       # What write queue length does an incoming req see
system.mem_ctrls.wrQLenPdf::5                       1                       # What write queue length does an incoming req see
system.mem_ctrls.wrQLenPdf::6                       1                       # What write queue length does an incoming req see
system.mem_ctrls.wrQLenPdf::7                       1                       # What write queue length does an incoming req see
system.mem_ctrls.wrQLenPdf::8                       1                       # What write queue length does an incoming req see
system.mem_ctrls.wrQLenPdf::9                       1                       # What write queue length does an incoming req see
system.mem_ctrls.wrQLenPdf::10                      1                       # What write queue length does an incoming req see
system.mem_ctrls.wrQLenPdf::11                      1                       # What write queue length does an incoming req see
system.mem_ctrls.wrQLenPdf::12                      1                       # What write queue length does an incoming req see
system.mem_ctrls.wrQLenPdf::13                      1                       # What write queue length does an incoming req see
system.mem_ctrls.wrQLenPdf::14                      1                       # What write queue length does an incoming req see
system.mem_ctrls.wrQLenPdf::15                     60                       # What write queue length does an incoming req see
system.mem_ctrls.wrQLenPdf::16                     65                       # What write queue length does an incoming req see
system.mem_ctrls.wrQLenPdf::17                  27004                       # What write queue length does an incoming req see
system.mem_ctrls.wrQLenPdf::18                  27429                       # What write queue length does an incoming req see
system.mem_ctrls.wrQLenPdf::19                  27470                       # What write queue length does an incoming req see
system.mem_ctrls.wrQLenPdf::20                  27549                       # What write queue length does an incoming req see
system.mem_ctrls.wrQLenPdf::21                  27526                       # What write queue length does an incoming req see
system.mem_ctrls.wrQLenPdf::22                  27527                       # What write queue length does an incoming req see
system.mem_ctrls.wrQLenPdf::23                  27546                       # What write queue length does an incoming req see
system.mem_ctrls.wrQLenPdf::24                  27521                       # What write queue length does an incoming req see
system.mem_ctrls.wrQLenPdf::25                  27521                       # What write queue length does an incoming req see
system.mem_ctrls.wrQLenPdf::26                  27559                       # What write queue length does an incoming req see
system.mem_ctrls.wrQLenPdf::27                  27525                       # What write queue length does an incoming req see
system.mem_ctrls.wrQLenPdf::28                  27574                       # What write queue length does an incoming req see
system.mem_ctrls.wrQLenPdf::29                  27874                       # What write queue length does an incoming req see
system.mem_ctrls.wrQLenPdf::30                  27522                       # What write queue length does an incoming req see
system.mem_ctrls.wrQLenPdf::31                  27590                       # What write queue length does an incoming req see
system.mem_ctrls.wrQLenPdf::32                  27520                       # What write queue length does an incoming req see
system.mem_ctrls.wrQLenPdf::33                      6                       # What write queue length does an incoming req see
system.mem_ctrls.wrQLenPdf::34                      0                       # What write queue length does an incoming req see
system.mem_ctrls.wrQLenPdf::35                      0                       # What write queue length does an incoming req see
system.mem_ctrls.wrQLenPdf::36                      0                       # What write queue length does an incoming req see
system.mem_ctrls.wrQLenPdf::37                      0                       # What write queue length does an incoming req see
system.mem_ctrls.wrQLenPdf::38                      0                       # What write queue length does an incoming req see
system.mem_ctrls.wrQLenPdf::39                      0                       # What write queue length does an incoming req see
system.mem_ctrls.wrQLenPdf::40                      0                       # What write queue length does an incoming req see
system.mem_ctrls.wrQLenPdf::41                      0                       # What write queue length does an incoming req see
system.mem_ctrls.wrQLenPdf::42                      0                       # What write queue length does an incoming req see
system.mem_ctrls.wrQLenPdf::43                      0                       # What write queue length does an incoming req see
system.mem_ctrls.wrQLenPdf::44                      0                       # What write queue length does an incoming req see
system.mem_ctrls.wrQLenPdf::45                      0                       # What write queue length does an incoming req see
system.mem_ctrls.wrQLenPdf::46                      0                       # What write queue length does an incoming req see
system.mem_ctrls.wrQLenPdf::47                      0                       # What write queue length does an incoming req see
system.mem_ctrls.wrQLenPdf::48                      0                       # What write queue length does an incoming req see
system.mem_ctrls.wrQLenPdf::49                      0                       # What write queue length does an incoming req see
system.mem_ctrls.wrQLenPdf::50                      0                       # What write queue length does an incoming req see
system.mem_ctrls.wrQLenPdf::51                      0                       # What write queue length does an incoming req see
system.mem_ctrls.wrQLenPdf::52                      0                       # What write queue length does an incoming req see
system.mem_ctrls.wrQLenPdf::53                      0                       # What write queue length does an incoming req see
system.mem_ctrls.wrQLenPdf::54                      0                       # What write queue length does an incoming req see
system.mem_ctrls.wrQLenPdf::55                      0                       # What write queue length does an incoming req see
system.mem_ctrls.wrQLenPdf::56                      0                       # What write queue length does an incoming req see
system.mem_ctrls.wrQLenPdf::57                      0                       # What write queue length does an incoming req see
system.mem_ctrls.wrQLenPdf::58                      0                       # What write queue length does an incoming req see
system.mem_ctrls.wrQLenPdf::59                      0                       # What write queue length does an incoming req see
system.mem_ctrls.wrQLenPdf::60                      0                       # What write queue length does an incoming req see
system.mem_ctrls.wrQLenPdf::61                      0                       # What write queue length does an incoming req see
system.mem_ctrls.wrQLenPdf::62                      0                       # What write queue length does an incoming req see
system.mem_ctrls.wrQLenPdf::63                      0                       # What write queue length does an incoming req see
system.mem_ctrls.rdPerTurnAround::samples        27515                       # Reads before turning the bus around for writes
system.mem_ctrls.rdPerTurnAround::mean      27.390841                       # Reads before turning the bus around for writes
system.mem_ctrls.rdPerTurnAround::gmean     23.689536                       # Reads before turning the bus around for writes
system.mem_ctrls.rdPerTurnAround::stdev     50.325625                       # Reads before turning the bus around for writes
system.mem_ctrls.rdPerTurnAround::0-63          27386     99.53%     99.53% # Reads before turning the bus around for writes
system.mem_ctrls.rdPerTurnAround::64-127           45      0.16%     99.69% # Reads before turning the bus around for writes
system.mem_ctrls.rdPerTurnAround::128-191            5      0.02%     99.71% # Reads before turning the bus around for writes
system.mem_ctrls.rdPerTurnAround::192-255            2      0.01%     99.72% # Reads before turning the bus around for writes
system.mem_ctrls.rdPerTurnAround::256-319           12      0.04%     99.76% # Reads before turning the bus around for writes
system.mem_ctrls.rdPerTurnAround::448-511            1      0.00%     99.77% # Reads before turning the bus around for writes
system.mem_ctrls.rdPerTurnAround::704-767            1      0.00%     99.77% # Reads before turning the bus around for writes
system.mem_ctrls.rdPerTurnAround::768-831            1      0.00%     99.77% # Reads before turning the bus around for writes
system.mem_ctrls.rdPerTurnAround::832-895            4      0.01%     99.79% # Reads before turning the bus around for writes
system.mem_ctrls.rdPerTurnAround::896-959           23      0.08%     99.87% # Reads before turning the bus around for writes
system.mem_ctrls.rdPerTurnAround::960-1023            4      0.01%     99.89% # Reads before turning the bus around for writes
system.mem_ctrls.rdPerTurnAround::1024-1087            7      0.03%     99.91% # Reads before turning the bus around for writes
system.mem_ctrls.rdPerTurnAround::1088-1151            9      0.03%     99.95% # Reads before turning the bus around for writes
system.mem_ctrls.rdPerTurnAround::1152-1215            6      0.02%     99.97% # Reads before turning the bus around for writes
system.mem_ctrls.rdPerTurnAround::1216-1279            8      0.03%    100.00% # Reads before turning the bus around for writes
system.mem_ctrls.rdPerTurnAround::1536-1599            1      0.00%    100.00% # Reads before turning the bus around for writes
system.mem_ctrls.rdPerTurnAround::total         27515                       # Reads before turning the bus around for writes
system.mem_ctrls.wrPerTurnAround::samples        27515                       # Writes before turning the bus around for reads
system.mem_ctrls.wrPerTurnAround::mean      16.004797                       # Writes before turning the bus around for reads
system.mem_ctrls.wrPerTurnAround::gmean     16.004508                       # Writes before turning the bus around for reads
system.mem_ctrls.wrPerTurnAround::stdev      0.100404                       # Writes before turning the bus around for reads
system.mem_ctrls.wrPerTurnAround::16            27451     99.77%     99.77% # Writes before turning the bus around for reads
system.mem_ctrls.wrPerTurnAround::18               61      0.22%     99.99% # Writes before turning the bus around for reads
system.mem_ctrls.wrPerTurnAround::19                2      0.01%    100.00% # Writes before turning the bus around for reads
system.mem_ctrls.wrPerTurnAround::20                1      0.00%    100.00% # Writes before turning the bus around for reads
system.mem_ctrls.wrPerTurnAround::total         27515                       # Writes before turning the bus around for reads
system.mem_ctrls.bytesReadWrQ                       0                       # Total number of bytes read from write queue
system.mem_ctrls.bytesReadSys                48235200                       # Total read bytes from the system interface side
system.mem_ctrls.bytesWrittenSys             28185792                       # Total written bytes from the system interface side
system.mem_ctrls.avgRdBWSys                    829.34                       # Average system read bandwidth in MiByte/s
system.mem_ctrls.avgWrBWSys                    484.62                       # Average system write bandwidth in MiByte/s
system.mem_ctrls.totGap                   58160544298                       # Total gap between requests
system.mem_ctrls.avgGap                      48707.49                       # Average gap between requests
system.mem_ctrls.requestorReadBytes::.cpu.inst        31680                       # Per-requestor bytes read from memory
system.mem_ctrls.requestorReadBytes::.cpu.data     48203520                       # Per-requestor bytes read from memory
system.mem_ctrls.requestorWriteBytes::.writebacks     28183808                       # Per-requestor bytes write to memory
system.mem_ctrls.requestorReadRate::.cpu.inst 544697.539219761966                       # Per-requestor bytes read from memory rate (Bytes/sec)
system.mem_ctrls.requestorReadRate::.cpu.data 828798570.887960314751                       # Per-requestor bytes read from memory rate (Bytes/sec)
system.mem_ctrls.requestorWriteRate::.writebacks 484584938.871282875538                       # Per-requestor bytes write to memory rate (Bytes/sec)
system.mem_ctrls.requestorReadAccesses::.cpu.inst          495                       # Per-requestor read serviced memory accesses
system.mem_ctrls.requestorReadAccesses::.cpu.data       753180                       # Per-requestor read serviced memory accesses
system.mem_ctrls.requestorWriteAccesses::.writebacks       440403                       # Per-requestor write serviced memory accesses
system.mem_ctrls.requestorReadTotalLat::.cpu.inst     14150628                       # Per-requestor read total memory access latency
system.mem_ctrls.requestorReadTotalLat::.cpu.data  21246587972                       # Per-requestor read total memory access latency
system.mem_ctrls.requestorWriteTotalLat::.writebacks 1441974165778                       # Per-requestor write total memory access latency
system.mem_ctrls.requestorReadAvgLat::.cpu.inst     28587.13                       # Per-requestor read average memory access latency
system.mem_ctrls.requestorReadAvgLat::.cpu.data     28209.18                       # Per-requestor read average memory access latency
system.mem_ctrls.requestorWriteAvgLat::.writebacks   3274215.13                       # Per-requestor write average memory access latency
system.mem_ctrls.dram.bytes_read::.cpu.inst        31680                       # Number of bytes read from this memory
system.mem_ctrls.dram.bytes_read::.cpu.data     48203520                       # Number of bytes read from this memory
system.mem_ctrls.dram.bytes_read::total      48235200                       # Number of bytes read from this memory
system.mem_ctrls.dram.bytes_inst_read::.cpu.inst        31680                       # Number of instructions bytes read from this memory
system.mem_ctrls.dram.bytes_inst_read::total        31680                       # Number of instructions bytes read from this memory
system.mem_ctrls.dram.bytes_written::.writebacks     28185792                       # Number of bytes written to this memory
system.mem_ctrls.dram.bytes_written::total     28185792                       # Number of bytes written to this memory
system.mem_ctrls.dram.num_reads::.cpu.inst          495                       # Number of read requests responded to by this memory
system.mem_ctrls.dram.num_reads::.cpu.data       753180                       # Number of read requests responded to by this memory
system.mem_ctrls.dram.num_reads::total         753675                       # Number of read requests responded to by this memory
system.mem_ctrls.dram.num_writes::.writebacks       440403                       # Number of write requests responded to by this memory
system.mem_ctrls.dram.num_writes::total        440403                       # Number of write requests responded to by this memory
system.mem_ctrls.dram.bw_read::.cpu.inst       544698                       # Total read bandwidth from this memory (bytes/s)
system.mem_ctrls.dram.bw_read::.cpu.data    828798571                       # Total read bandwidth from this memory (bytes/s)
system.mem_ctrls.dram.bw_read::total        829343268                       # Total read bandwidth from this memory (bytes/s)
system.mem_ctrls.dram.bw_inst_read::.cpu.inst       544698                       # Instruction read bandwidth from this memory (bytes/s)
system.mem_ctrls.dram.bw_inst_read::total       544698                       # Instruction read bandwidth from this memory (bytes/s)
system.mem_ctrls.dram.bw_write::.writebacks    484619051                       # Write bandwidth from this memory (bytes/s)
system.mem_ctrls.dram.bw_write::total       484619051                       # Write bandwidth from this memory (bytes/s)
[...]
system.cpu.dcache.WriteReq_mshr_miss_rate::total     0.089977                       # mshr miss rate for WriteReq accesses
system.cpu.dcache.WriteReq_avg_mshr_miss_latency::.cpu.data 71272.936573                       # average WriteReq mshr miss latency
system.cpu.dcache.WriteReq_avg_mshr_miss_latency::total 71272.936573                       # average WriteReq mshr miss latency
system.cpu.dcache.SoftPFReq_hits::.cpu.data            2                       # number of SoftPFReq hits
system.cpu.dcache.SoftPFReq_hits::total             2                       # number of SoftPFReq hits
system.cpu.dcache.SoftPFReq_misses::.cpu.data        16384                       # number of SoftPFReq misses
system.cpu.dcache.SoftPFReq_misses::total        16384                       # number of SoftPFReq misses
system.cpu.dcache.SoftPFReq_accesses::.cpu.data        16386                       # number of SoftPFReq accesses(hits+misses)
system.cpu.dcache.SoftPFReq_accesses::total        16386                       # number of SoftPFReq accesses(hits+misses)
system.cpu.dcache.SoftPFReq_miss_rate::.cpu.data     0.999878                       # miss rate for SoftPFReq accesses
system.cpu.dcache.SoftPFReq_miss_rate::total     0.999878                       # miss rate for SoftPFReq accesses
system.cpu.dcache.SoftPFReq_mshr_misses::.cpu.data        16384                       # number of SoftPFReq MSHR misses
system.cpu.dcache.SoftPFReq_mshr_misses::total        16384                       # number of SoftPFReq MSHR misses
system.cpu.dcache.SoftPFReq_mshr_miss_latency::.cpu.data   1287397706                       # number of SoftPFReq MSHR miss cycles
system.cpu.dcache.SoftPFReq_mshr_miss_latency::total   1287397706                       # number of SoftPFReq MSHR miss cycles
system.cpu.dcache.SoftPFReq_mshr_miss_rate::.cpu.data     0.999878                       # mshr miss rate for SoftPFReq accesses
system.cpu.dcache.SoftPFReq_mshr_miss_rate::total     0.999878                       # mshr miss rate for SoftPFReq accesses
system.cpu.dcache.SoftPFReq_avg_mshr_miss_latency::.cpu.data 78576.520142                       # average SoftPFReq mshr miss latency
system.cpu.dcache.SoftPFReq_avg_mshr_miss_latency::total 78576.520142                       # average SoftPFReq mshr miss latency
system.cpu.dcache.power_state.pwrStateResidencyTicks::UNDEFINED  58160718048                       # Cumulative time (in ticks) in various power states
system.cpu.dcache.tags.tagsinuse           427.936693                       # Cycle average of tags in use
system.cpu.dcache.tags.total_refs            66513917                       # Total number of references to valid blocks.
system.cpu.dcache.tags.sampled_refs            753193                       # Sample count of references to valid blocks.
system.cpu.dcache.tags.avg_refs             88.309261                       # Average number of references to valid blocks.
system.cpu.dcache.tags.warmup_cycle            160962                       # Cycle when the warmup percentage was hit.
system.cpu.dcache.tags.occ_blocks::.cpu.data   427.936693                       # Average occupied blocks per requestor
system.cpu.dcache.tags.occ_percent::.cpu.data     0.835814                       # Average percentage of cache occupancy
system.cpu.dcache.tags.occ_percent::total     0.835814                       # Average percentage of cache occupancy
system.cpu.dcache.tags.occ_task_id_blocks::1024          512                       # Occupied blocks per task id
system.cpu.dcache.tags.age_task_id_blocks_1024::0           25                       # Occupied blocks per task id
system.cpu.dcache.tags.age_task_id_blocks_1024::1          375                       # Occupied blocks per task id
system.cpu.dcache.tags.age_task_id_blocks_1024::2            2                       # Occupied blocks per task id
system.cpu.dcache.tags.age_task_id_blocks_1024::3          110                       # Occupied blocks per task id
system.cpu.dcache.tags.occ_task_id_percent::1024            1                       # Percentage of cache occupancy per task id
system.cpu.dcache.tags.tag_accesses         555768481                       # Number of tag accesses
system.cpu.dcache.tags.data_accesses        555768481                       # Number of data accesses
system.cpu.dcache.tags.power_state.pwrStateResidencyTicks::UNDEFINED  58160718048                       # Cumulative time (in ticks) in various power states
system.cpu.power_state.pwrStateResidencyTicks::ON  58160718048                       # Cumulative time (in ticks) in various power states
system.cpu.branchPred.lookups                 9548192                       # Number of BP lookups
system.cpu.branchPred.condPredicted           9127212                       # Number of conditional branches predicted
system.cpu.branchPred.condIncorrect             29823                       # Number of conditional branches incorrect
system.cpu.branchPred.BTBLookups              8256492                       # Number of BTB lookups
system.cpu.branchPred.BTBHits                 8255629                       # Number of BTB hits
system.cpu.branchPred.BTBHitPct             99.989548                       # BTB Hit Percentage
system.cpu.branchPred.RASUsed                   19789                       # Number of times the RAS was used to get a target.
system.cpu.branchPred.RASIncorrect                  2                       # Number of incorrect RAS predictions.
system.cpu.branchPred.indirectLookups             182                       # Number of indirect predictor lookups.
system.cpu.branchPred.indirectHits                 26                       # Number of indirect target hits.
system.cpu.branchPred.indirectMisses              156                       # Number of indirect misses.
system.cpu.branchPred.indirectMispredicted           73                       # Number of mispredicted indirect branches.
system.cpu.commit.commitSquashedInsts       151670045                       # The number of squashed insts skipped by commit
system.cpu.commit.commitNonSpecStalls          231330                       # The number of times commit has been forced to stall to communicate backwards
system.cpu.commit.branchMispredicts             29597                       # The number of times a branch was mispredicted
system.cpu.commit.numCommittedDist::samples    189547949                       # Number of insts commited each cycle
system.cpu.commit.numCommittedDist::mean     0.164078                       # Number of insts commited each cycle
system.cpu.commit.numCommittedDist::stdev     0.935081                       # Number of insts commited each cycle
system.cpu.commit.numCommittedDist::underflows            0      0.00%      0.00% # Number of insts commited each cycle
system.cpu.commit.numCommittedDist::0       179924472     94.92%     94.92% # Number of insts commited each cycle
system.cpu.commit.numCommittedDist::1         4404626      2.32%     97.25% # Number of insts commited each cycle
system.cpu.commit.numCommittedDist::2          583408      0.31%     97.55% # Number of insts commited each cycle
system.cpu.commit.numCommittedDist::3         1583134      0.84%     98.39% # Number of insts commited each cycle
system.cpu.commit.numCommittedDist::4          581166      0.31%     98.70% # Number of insts commited each cycle
system.cpu.commit.numCommittedDist::5          284563      0.15%     98.85% # Number of insts commited each cycle
system.cpu.commit.numCommittedDist::6          201839      0.11%     98.95% # Number of insts commited each cycle
system.cpu.commit.numCommittedDist::7           56637      0.03%     98.98% # Number of insts commited each cycle
system.cpu.commit.numCommittedDist::8         1928104      1.02%    100.00% # Number of insts commited each cycle
system.cpu.commit.numCommittedDist::overflows            0      0.00%    100.00% # Number of insts commited each cycle
system.cpu.commit.numCommittedDist::min_value            0                       # Number of insts commited each cycle
system.cpu.commit.numCommittedDist::max_value            8                       # Number of insts commited each cycle
system.cpu.commit.numCommittedDist::total    189547949                       # Number of insts commited each cycle
system.cpu.commit.instsCommitted             20000003                       # Number of instructions committed
system.cpu.commit.opsCommitted               31100648                       # Number of ops (including micro ops) committed
system.cpu.commit.memRefs                    12387408                       # Number of memory references committed
system.cpu.commit.loads                       7560472                       # Number of loads committed
system.cpu.commit.amos                              0                       # Number of atomic instructions committed
system.cpu.commit.membars                           0                       # Number of memory barriers committed
system.cpu.commit.branches                    2658562                       # Number of branches committed
system.cpu.commit.vector                            0                       # Number of committed Vector instructions.
system.cpu.commit.floating                        612                       # Number of committed floating point instructions.
system.cpu.commit.integer                    30809169                       # Number of committed integer instructions.
system.cpu.commit.functionCalls                 15454                       # Number of function calls committed.
system.cpu.commit.committedInstType_0::No_OpClass       291114      0.94%      0.94% # Class of committed instruction
system.cpu.commit.committedInstType_0::IntAlu     18421627     59.23%     60.17% # Class of committed instruction
system.cpu.commit.committedInstType_0::IntMult           96      0.00%     60.17% # Class of committed instruction
system.cpu.commit.committedInstType_0::IntDiv           49      0.00%     60.17% # Class of committed instruction
system.cpu.commit.committedInstType_0::FloatAdd            8      0.00%     60.17% # Class of committed instruction
system.cpu.commit.committedInstType_0::FloatCmp            0      0.00%     60.17% # Class of committed instruction
system.cpu.commit.committedInstType_0::FloatCvt            0      0.00%     60.17% # Class of committed instruction
system.cpu.commit.committedInstType_0::FloatMult            0      0.00%     60.17% # Class of committed instruction
system.cpu.commit.committedInstType_0::FloatMultAcc            0      0.00%     60.17% # Class of committed instruction
system.cpu.commit.committedInstType_0::FloatDiv            0      0.00%     60.17% # Class of committed instruction
system.cpu.commit.committedInstType_0::FloatMisc            0      0.00%     60.17% # Class of committed instruction
system.cpu.commit.committedInstType_0::FloatSqrt            0      0.00%     60.17% # Class of committed instruction
system.cpu.commit.committedInstType_0::SimdAdd            0      0.00%     60.17% # Class of committed instruction
system.cpu.commit.committedInstType_0::SimdAddAcc            0      0.00%     60.17% # Class of committed instruction
system.cpu.commit.committedInstType_0::SimdAlu           94      0.00%     60.17% # Class of committed instruction
system.cpu.commit.committedInstType_0::SimdCmp            0      0.00%     60.17% # Class of committed instruction
system.cpu.commit.committedInstType_0::SimdCvt           98      0.00%     60.17% # Class of committed instruction
system.cpu.commit.committedInstType_0::SimdMisc          154      0.00%     60.17% # Class of committed instruction
system.cpu.commit.committedInstType_0::SimdMult            0      0.00%     60.17% # Class of committed instruction
system.cpu.commit.committedInstType_0::SimdMultAcc            0      0.00%     60.17% # Class of committed instruction
system.cpu.commit.committedInstType_0::SimdShift            0      0.00%     60.17% # Class of committed instruction
system.cpu.commit.committedInstType_0::SimdShiftAcc            0      0.00%     60.17% # Class of committed instruction
system.cpu.commit.committedInstType_0::SimdDiv            0      0.00%     60.17% # Class of committed instruction
system.cpu.commit.committedInstType_0::SimdSqrt            0      0.00%     60.17% # Class of committed instruction
system.cpu.commit.committedInstType_0::SimdFloatAdd            0      0.00%     60.17% # Class of committed instruction
system.cpu.commit.committedInstType_0::SimdFloatAlu            0      0.00%     60.17% # Class of committed instruction
system.cpu.commit.committedInstType_0::SimdFloatCmp            0      0.00%     60.17% # Class of committed instruction
system.cpu.commit.committedInstType_0::SimdFloatCvt            0      0.00%     60.17% # Class of committed instruction
system.cpu.commit.committedInstType_0::SimdFloatDiv            0      0.00%     60.17% # Class of committed instruction
system.cpu.commit.committedInstType_0::SimdFloatMisc            0      0.00%     60.17% # Class of committed instruction
system.cpu.commit.committedInstType_0::SimdFloatMult            0      0.00%     60.17% # Class of committed instruction
system.cpu.commit.committedInstType_0::SimdFloatMultAcc            0      0.00%     60.17% # Class of committed instruction
system.cpu.commit.committedInstType_0::SimdFloatSqrt            0      0.00%     60.17% # Class of committed instruction
system.cpu.commit.committedInstType_0::SimdReduceAdd            0      0.00%     60.17% # Class of committed instruction
system.cpu.commit.committedInstType_0::SimdReduceAlu            0      0.00%     60.17% # Class of committed instruction
system.cpu.commit.committedInstType_0::SimdReduceCmp            0      0.00%     60.17% # Class of committed instruction
system.cpu.commit.committedInstType_0::SimdFloatReduceAdd            0      0.00%     60.17% # Class of committed instruction
system.cpu.commit.committedInstType_0::SimdFloatReduceCmp            0      0.00%     60.17% # Class of committed instruction
system.cpu.commit.committedInstType_0::SimdAes            0      0.00%     60.17% # Class of committed instruction
system.cpu.commit.committedInstType_0::SimdAesMix            0      0.00%     60.17% # Class of committed instruction
system.cpu.commit.committedInstType_0::SimdSha1Hash            0      0.00%     60.17% # Class of committed instruction
system.cpu.commit.committedInstType_0::SimdSha1Hash2            0      0.00%     60.17% # Class of committed instruction
system.cpu.commit.committedInstType_0::SimdSha256Hash            0      0.00%     60.17% # Class of committed instruction
system.cpu.commit.committedInstType_0::SimdSha256Hash2            0      0.00%     60.17% # Class of committed instruction
system.cpu.commit.committedInstType_0::SimdShaSigma2            0      0.00%     60.17% # Class of committed instruction
system.cpu.commit.committedInstType_0::SimdShaSigma3            0      0.00%     60.17% # Class of committed instruction
system.cpu.commit.committedInstType_0::SimdPredAlu            0      0.00%     60.17% # Class of committed instruction
system.cpu.commit.committedInstType_0::MemRead      7560404     24.31%     84.48% # Class of committed instruction
system.cpu.commit.committedInstType_0::MemWrite      4826784     15.52%    100.00% # Class of committed instruction
system.cpu.commit.committedInstType_0::FloatMemRead           68      0.00%    100.00% # Class of committed instruction
system.cpu.commit.committedInstType_0::FloatMemWrite          152      0.00%    100.00% # Class of committed instruction
system.cpu.commit.committedInstType_0::IprAccess            0      0.00%    100.00% # Class of committed instruction
system.cpu.commit.committedInstType_0::InstPrefetch            0      0.00%    100.00% # Class of committed instruction
system.cpu.commit.committedInstType_0::total     31100648                       # Class of committed instruction
system.cpu.commit.commitEligibleSamples       1928104                       # number cycles where commit BW limit reached
system.cpu.fetch.icacheStallCycles           26274779                       # Number of cycles fetch is stalled on an Icache miss
system.cpu.fetch.insts                      216784721                       # Number of instructions fetch has processed
system.cpu.fetch.branches                     9548192                       # Number of branches that fetch encountered
system.cpu.fetch.predictedBranches            8275444                       # Number of branches that fetch has predicted taken
system.cpu.fetch.cycles                     180946726                       # Number of cycles fetch has run and was not squashing or blocked
system.cpu.fetch.squashCycles                 3860816                       # Number of cycles fetch has spent squashing
system.cpu.fetch.miscStallCycles                   45                       # Number of cycles fetch has spent waiting on interrupts,or bad addresses, or out of MSHRs
system.cpu.fetch.pendingTrapStallCycles           347                       # Number of stall cycles due to pending traps
system.cpu.fetch.pendingQuiesceStallCycles            1                       # Number of stall cycles due to pending quiesce instructions
system.cpu.fetch.cacheLines                  24730170                       # Number of cache lines fetched
system.cpu.fetch.icacheSquashes                237508                       # Number of outstanding Icache misses that were squashed
system.cpu.fetch.nisnDist::samples          209152306                       # Number of instructions fetched each cycle (Total)
system.cpu.fetch.nisnDist::mean              1.558379                       # Number of instructions fetched each cycle (Total)
system.cpu.fetch.nisnDist::stdev             2.922919                       # Number of instructions fetched each cycle (Total)
system.cpu.fetch.nisnDist::underflows               0      0.00%      0.00% # Number of instructions fetched each cycle (Total)
system.cpu.fetch.nisnDist::0                158332639     75.70%     75.70% # Number of instructions fetched each cycle (Total)
system.cpu.fetch.nisnDist::1                  2826801      1.35%     77.05% # Number of instructions fetched each cycle (Total)
system.cpu.fetch.nisnDist::2                   933496      0.45%     77.50% # Number of instructions fetched each cycle (Total)
system.cpu.fetch.nisnDist::3                  1693334      0.81%     78.31% # Number of instructions fetched each cycle (Total)
system.cpu.fetch.nisnDist::4                  1115574      0.53%     78.84% # Number of instructions fetched each cycle (Total)
system.cpu.fetch.nisnDist::5                  6877413      3.29%     82.13% # Number of instructions fetched each cycle (Total)
system.cpu.fetch.nisnDist::6                  8196777      3.92%     86.05% # Number of instructions fetched each cycle (Total)
system.cpu.fetch.nisnDist::7                  5275427      2.52%     88.57% # Number of instructions fetched each cycle (Total)
system.cpu.fetch.nisnDist::8                 23900845     11.43%    100.00% # Number of instructions fetched each cycle (Total)
system.cpu.fetch.nisnDist::overflows                0      0.00%    100.00% # Number of instructions fetched each cycle (Total)
system.cpu.fetch.nisnDist::min_value                0                       # Number of instructions fetched each cycle (Total)
system.cpu.fetch.nisnDist::max_value                8                       # Number of instructions fetched each cycle (Total)
system.cpu.fetch.nisnDist::total            209152306                       # Number of instructions fetched each cycle (Total)
system.cpu.fetch.branchRate                  0.045639                       # Number of branch fetches per cycle
system.cpu.fetch.rate                        1.036200                       # Number of inst fetches per cycle

---------- End Simulation Statistics   ----------
