
---------- Begin Simulation Statistics ----------
final_tick                                 3066742822                       # Number of ticks from beginning of simulation (restored from checkpoints and never reset)
host_inst_rate                                 223793                       # Simulator instruction rate (inst/s)
host_mem_usage                                 681336                       # Number of bytes of host memory used
host_op_rate                                   425975                       # Simulator op (including micro ops) rate (op/s)
host_seconds                                    89.37                       # Real time elapsed on the host
host_tick_rate                               34315752                       # Simulator tick rate (ticks/s)
sim_freq                                 1000000000000                       # Frequency of simulated ticks
sim_insts                                    20000000                       # Number of instructions simulated
sim_ops                                      38068652                       # Number of ops (including micro ops) simulated
sim_seconds                                  0.003067                       # Number of seconds simulated
sim_ticks                                  3066742822                       # Number of ticks simulated
system.cpu.cc_regfile_reads                  22126645                       # number of cc regfile reads
system.cpu.cc_regfile_writes                 12861138                       # number of cc regfile writes
system.cpu.committedInsts                    20000000                       # Number of Instructions Simulated
system.cpu.committedOps                      38068652                       # Number of Ops (including micro ops) Simulated
system.cpu.cpi                               0.551573                       # CPI: Cycles Per Instruction
system.cpu.cpi_total                         0.551573                       # CPI: Total CPI of All Threads
system.cpu.fp_regfile_reads                   1331098                       # number of floating regfile reads
system.cpu.fp_regfile_writes                   590514                       # number of floating regfile writes
system.cpu.idleCycles                          165203                       # Total number of cycles that the CPU has spent unscheduled due to idling
system.cpu.iew.branchMispredicts                68528                       # Number of branch mispredicts detected at execute
system.cpu.iew.exec_branches                  4576455                       # Number of branches executed
system.cpu.iew.exec_nop                             0                       # number of nop insts executed
system.cpu.iew.exec_rate                     3.579057                       # Inst execution rate
system.cpu.iew.exec_refs                      7341022                       # number of memory reference insts executed
system.cpu.iew.exec_stores                    2895074                       # Number of stores executed
system.cpu.iew.exec_swp                             0                       # number of swp insts executed
system.cpu.iew.iewBlockCycles                  311553                       # Number of cycles IEW is blocking
system.cpu.iew.iewDispLoadInsts               4489421                       # Number of dispatched load instructions
system.cpu.iew.iewDispNonSpecInsts                 39                       # Number of dispatched non-speculative instructions
system.cpu.iew.iewDispSquashedInsts             73309                       # Number of squashed instructions skipped by dispatch
system.cpu.iew.iewDispStoreInsts              2921606                       # Number of dispatched store instructions
system.cpu.iew.iewDispatchedInsts            40089485                       # Number of instructions dispatched to IQ
system.cpu.iew.iewExecLoadInsts               4445948                       # Number of load instructions executed
system.cpu.iew.iewExecSquashedInsts            163498                       # Number of squashed instructions skipped in execute
system.cpu.iew.iewExecutedInsts              39482183                       # Number of executed instructions
system.cpu.iew.iewIQFullEvents                   1081                       # Number of times the IQ has become full, causing a stall
system.cpu.iew.iewIdleCycles                        0                       # Number of cycles IEW is idle
system.cpu.iew.iewLSQFullEvents                  8766                       # Number of times the LSQ has become full, causing a stall
system.cpu.iew.iewSquashCycles                  75096                       # Number of cycles IEW is squashing
system.cpu.iew.iewUnblockCycles                 10287                       # Number of cycles IEW is unblocking
system.cpu.iew.memOrderViolationEvents            334                       # Number of memory order violations
system.cpu.iew.predictedNotTakenIncorrect        50542                       # Number of branches that were predicted not taken incorrectly
system.cpu.iew.predictedTakenIncorrect          17986                       # Number of branches that were predicted taken incorrectly
system.cpu.iew.wb_consumers                  44600140                       # num instructions consuming a value
system.cpu.iew.wb_count                      39407775                       # cumulative count of insts written-back
system.cpu.iew.wb_fanout                     0.616991                       # average fanout of values written-back
system.cpu.iew.wb_producers                  27517906                       # num instructions producing a value
system.cpu.iew.wb_rate                       3.572311                       # insts written-back per cycle
system.cpu.iew.wb_sent                       39444049                       # cumulative count of insts sent to commit
system.cpu.int_regfile_reads                 61314168                       # number of integer regfile reads
system.cpu.int_regfile_writes                31130032                       # number of integer regfile writes
system.cpu.ipc                               1.812998                       # IPC: Instructions Per Cycle
system.cpu.ipc_total                         1.812998                       # IPC: Total IPC of All Threads
system.cpu.iq.FU_type_0::No_OpClass            503351      1.27%      1.27% # Type of FU issued
system.cpu.iq.FU_type_0::IntAlu              31095443     78.43%     79.70% # Type of FU issued
system.cpu.iq.FU_type_0::IntMult               106795      0.27%     79.97% # Type of FU issued
system.cpu.iq.FU_type_0::IntDiv                 59020      0.15%     80.12% # Type of FU issued
system.cpu.iq.FU_type_0::FloatAdd               34443      0.09%     80.21% # Type of FU issued
system.cpu.iq.FU_type_0::FloatCmp                   0      0.00%     80.21% # Type of FU issued
system.cpu.iq.FU_type_0::FloatCvt                  64      0.00%     80.21% # Type of FU issued
system.cpu.iq.FU_type_0::FloatMult                  0      0.00%     80.21% # Type of FU issued
system.cpu.iq.FU_type_0::FloatMultAcc               0      0.00%     80.21% # Type of FU issued
system.cpu.iq.FU_type_0::FloatDiv                   0      0.00%     80.21% # Type of FU issued
system.cpu.iq.FU_type_0::FloatMisc                  0      0.00%     80.21% # Type of FU issued
system.cpu.iq.FU_type_0::FloatSqrt                  0      0.00%     80.21% # Type of FU issued
system.cpu.iq.FU_type_0::SimdAdd                  417      0.00%     80.21% # Type of FU issued
system.cpu.iq.FU_type_0::SimdAddAcc                 0      0.00%     80.21% # Type of FU issued
system.cpu.iq.FU_type_0::SimdAlu               149336      0.38%     80.59% # Type of FU issued
system.cpu.iq.FU_type_0::SimdCmp                    6      0.00%     80.59% # Type of FU issued
system.cpu.iq.FU_type_0::SimdCvt                83354      0.21%     80.80% # Type of FU issued
system.cpu.iq.FU_type_0::SimdMisc              199540      0.50%     81.30% # Type of FU issued
system.cpu.iq.FU_type_0::SimdMult                   0      0.00%     81.30% # Type of FU issued
system.cpu.iq.FU_type_0::SimdMultAcc                0      0.00%     81.30% # Type of FU issued
system.cpu.iq.FU_type_0::SimdShift                333      0.00%     81.30% # Type of FU issued
system.cpu.iq.FU_type_0::SimdShiftAcc               0      0.00%     81.30% # Type of FU issued
system.cpu.iq.FU_type_0::SimdDiv                    0      0.00%     81.30% # Type of FU issued
system.cpu.iq.FU_type_0::SimdSqrt                   0      0.00%     81.30% # Type of FU issued
system.cpu.iq.FU_type_0::SimdFloatAdd               0      0.00%     81.30% # Type of FU issued
system.cpu.iq.FU_type_0::SimdFloatAlu               0      0.00%     81.30% # Type of FU issued
system.cpu.iq.FU_type_0::SimdFloatCmp               0      0.00%     81.30% # Type of FU issued
system.cpu.iq.FU_type_0::SimdFloatCvt           24796      0.06%     81.36% # Type of FU issued
system.cpu.iq.FU_type_0::SimdFloatDiv            8333      0.02%     81.38% # Type of FU issued
system.cpu.iq.FU_type_0::SimdFloatMisc              0      0.00%     81.38% # Type of FU issued
system.cpu.iq.FU_type_0::SimdFloatMult              0      0.00%     81.38% # Type of FU issued
system.cpu.iq.FU_type_0::SimdFloatMultAcc            0      0.00%     81.38% # Type of FU issued
system.cpu.iq.FU_type_0::SimdFloatSqrt              0      0.00%     81.38% # Type of FU issued
system.cpu.iq.FU_type_0::SimdReduceAdd              0      0.00%     81.38% # Type of FU issued
system.cpu.iq.FU_type_0::SimdReduceAlu              0      0.00%     81.38% # Type of FU issued
system.cpu.iq.FU_type_0::SimdReduceCmp              0      0.00%     81.38% # Type of FU issued
system.cpu.iq.FU_type_0::SimdFloatReduceAdd            0      0.00%     81.38% # Type of FU issued
system.cpu.iq.FU_type_0::SimdFloatReduceCmp            0      0.00%     81.38% # Type of FU issued
system.cpu.iq.FU_type_0::SimdAes                    0      0.00%     81.38% # Type of FU issued
system.cpu.iq.FU_type_0::SimdAesMix                 0      0.00%     81.38% # Type of FU issued
system.cpu.iq.FU_type_0::SimdSha1Hash               0      0.00%     81.38% # Type of FU issued
system.cpu.iq.FU_type_0::SimdSha1Hash2              0      0.00%     81.38% # Type of FU issued
system.cpu.iq.FU_type_0::SimdSha256Hash             0      0.00%     81.38% # Type of FU issued
system.cpu.iq.FU_type_0::SimdSha256Hash2            0      0.00%     81.38% # Type of FU issued
system.cpu.iq.FU_type_0::SimdShaSigma2              0      0.00%     81.38% # Type of FU issued
system.cpu.iq.FU_type_0::SimdShaSigma3              0      0.00%     81.38% # Type of FU issued
system.cpu.iq.FU_type_0::SimdPredAlu                0      0.00%     81.38% # Type of FU issued
system.cpu.iq.FU_type_0::MemRead              4342906     10.95%     92.34% # Type of FU issued
system.cpu.iq.FU_type_0::MemWrite             2752801      6.94%     99.28% # Type of FU issued
system.cpu.iq.FU_type_0::FloatMemRead          125231      0.32%     99.60% # Type of FU issued
system.cpu.iq.FU_type_0::FloatMemWrite         159516      0.40%    100.00% # Type of FU issued
system.cpu.iq.FU_type_0::IprAccess                  0      0.00%    100.00% # Type of FU issued
system.cpu.iq.FU_type_0::InstPrefetch               0      0.00%    100.00% # Type of FU issued
system.cpu.iq.FU_type_0::total               39645685                       # Type of FU issued
system.cpu.iq.fp_alu_accesses                  893228                       # Number of floating point alu accesses
system.cpu.iq.fp_inst_queue_reads             1744839                       # Number of floating instruction queue reads
system.cpu.iq.fp_inst_queue_wakeup_accesses       840927                       # Number of floating instruction queue wakeup accesses
system.cpu.iq.fp_inst_queue_writes             857094                       # Number of floating instruction queue writes
system.cpu.iq.fu_busy_cnt                      823248                       # FU busy when requested
system.cpu.iq.fu_busy_rate                   0.020765                       # FU busy rate (busy events/executed inst)
system.cpu.iq.fu_full::No_OpClass                   0      0.00%      0.00% # attempts to use FU when none available
system.cpu.iq.fu_full::IntAlu                  746064     90.62%     90.62% # attempts to use FU when none available
system.cpu.iq.fu_full::IntMult                      0      0.00%     90.62% # attempts to use FU when none available
system.cpu.iq.fu_full::IntDiv                       0      0.00%     90.62% # attempts to use FU when none available
system.cpu.iq.fu_full::FloatAdd                     0      0.00%     90.62% # attempts to use FU when none available
system.cpu.iq.fu_full::FloatCmp                     0      0.00%     90.62% # attempts to use FU when none available
system.cpu.iq.fu_full::FloatCvt                     0      0.00%     90.62% # attempts to use FU when none available
system.cpu.iq.fu_full::FloatMult                    0      0.00%     90.62% # attempts to use FU when none available
system.cpu.iq.fu_full::FloatMultAcc                 0      0.00%     90.62% # attempts to use FU when none available
system.cpu.iq.fu_full::FloatDiv                     0      0.00%     90.62% # attempts to use FU when none available
system.cpu.iq.fu_full::FloatMisc                    0      0.00%     90.62% # attempts to use FU when none available
system.cpu.iq.fu_full::FloatSqrt                    0      0.00%     90.62% # attempts to use FU when none available
system.cpu.iq.fu_full::SimdAdd                      1      0.00%     90.62% # attempts to use FU when none available
system.cpu.iq.fu_full::SimdAddAcc                   0      0.00%     90.62% # attempts to use FU when none available
system.cpu.iq.fu_full::SimdAlu                   8245      1.00%     91.63% # attempts to use FU when none available
system.cpu.iq.fu_full::SimdCmp                      0      0.00%     91.63% # attempts to use FU when none available
system.cpu.iq.fu_full::SimdCvt                      9      0.00%     91.63% # attempts to use FU when none available
system.cpu.iq.fu_full::SimdMisc                     3      0.00%     91.63% # attempts to use FU when none available
system.cpu.iq.fu_full::SimdMult                     0      0.00%     91.63% # attempts to use FU when none available
system.cpu.iq.fu_full::SimdMultAcc                  0      0.00%     91.63% # attempts to use FU when none available
system.cpu.iq.fu_full::SimdShift                    0      0.00%     91.63% # attempts to use FU when none available
system.cpu.iq.fu_full::SimdShiftAcc                 0      0.00%     91.63% # attempts to use FU when none available
system.cpu.iq.fu_full::SimdDiv                      0      0.00%     91.63% # attempts to use FU when none available
system.cpu.iq.fu_full::SimdSqrt                     0      0.00%     91.63% # attempts to use FU when none available
system.cpu.iq.fu_full::SimdFloatAdd                 0      0.00%     91.63% # attempts to use FU when none available
system.cpu.iq.fu_full::SimdFloatAlu                 0      0.00%     91.63% # attempts to use FU when none available
system.cpu.iq.fu_full::SimdFloatCmp                 0      0.00%     91.63% # attempts to use FU when none available
system.cpu.iq.fu_full::SimdFloatCvt                 0      0.00%     91.63% # attempts to use FU when none available
system.cpu.iq.fu_full::SimdFloatDiv                 0      0.00%     91.63% # attempts to use FU when none available
system.cpu.iq.fu_full::SimdFloatMisc                0      0.00%     91.63% # attempts to use FU when none available
system.cpu.iq.fu_full::SimdFloatMult                0      0.00%     91.63% # attempts to use FU when none available
system.cpu.iq.fu_full::SimdFloatMultAcc             0      0.00%     91.63% # attempts to use FU when none available
system.cpu.iq.fu_full::SimdFloatSqrt                0      0.00%     91.63% # attempts to use FU when none available
system.cpu.iq.fu_full::SimdReduceAdd                0      0.00%     91.63% # attempts to use FU when none available
system.cpu.iq.fu_full::SimdReduceAlu                0      0.00%     91.63% # attempts to use FU when none available
system.cpu.iq.fu_full::SimdReduceCmp                0      0.00%     91.63% # attempts to use FU when none available
system.cpu.iq.fu_full::SimdFloatReduceAdd            0      0.00%     91.63% # attempts to use FU when none available
system.cpu.iq.fu_full::SimdFloatReduceCmp            0      0.00%     91.63% # attempts to use FU when none available
system.cpu.iq.fu_full::SimdAes                      0      0.00%     91.63% # attempts to use FU when none available
system.cpu.iq.fu_full::SimdAesMix                   0      0.00%     91.63% # attempts to use FU when none available
system.cpu.iq.fu_full::SimdSha1Hash                 0      0.00%     91.63% # attempts to use FU when none available
system.cpu.iq.fu_full::SimdSha1Hash2                0      0.00%     91.63% # attempts to use FU when none available
system.cpu.iq.fu_full::SimdSha256Hash               0      0.00%     91.63% # attempts to use FU when none available
system.cpu.iq.fu_full::SimdSha256Hash2              0      0.00%     91.63% # attempts to use FU when none available
system.cpu.iq.fu_full::SimdShaSigma2                0      0.00%     91.63% # attempts to use FU when none available
system.cpu.iq.fu_full::SimdShaSigma3                0      0.00%     91.63% # attempts to use FU when none available
system.cpu.iq.fu_full::SimdPredAlu                  0      0.00%     91.63% # attempts to use FU when none available
system.cpu.iq.fu_full::MemRead                  26626      3.23%     94.86% # attempts to use FU when none available
system.cpu.iq.fu_full::MemWrite                  8898      1.08%     95.94% # attempts to use FU when none available
system.cpu.iq.fu_full::FloatMemRead                25      0.00%     95.95% # attempts to use FU when none available
system.cpu.iq.fu_full::FloatMemWrite            33377      4.05%    100.00% # attempts to use FU when none available
system.cpu.iq.fu_full::IprAccess                    0      0.00%    100.00% # attempts to use FU when none available
system.cpu.iq.fu_full::InstPrefetch                 0      0.00%    100.00% # attempts to use FU when none available
system.cpu.iq.int_alu_accesses               39072354                       # Number of integer alu accesses
system.cpu.iq.int_inst_queue_reads           89278430                       # Number of integer instruction queue reads
system.cpu.iq.int_inst_queue_wakeup_accesses     38566848                       # Number of integer instruction queue wakeup accesses
system.cpu.iq.int_inst_queue_writes          41253526                       # Number of integer instruction queue writes
system.cpu.iq.iqInstsAdded                   40089446                       # Number of instructions added to the IQ (excludes non-spec)
system.cpu.iq.iqInstsIssued                  39645685                       # Number of instructions issued
system.cpu.iq.iqNonSpecInstsAdded                  39                       # Number of non-speculative instructions added to the IQ
system.cpu.iq.iqSquashedInstsExamined         2020805                       # Number of squashed instructions iterated over during squash; mainly for profiling
system.cpu.iq.iqSquashedInstsIssued             42408                       # Number of squashed instructions issued
system.cpu.iq.iqSquashedNonSpecRemoved              3                       # Number of squashed non-spec instructions that were removed
system.cpu.iq.iqSquashedOperandsExamined      2138519                       # Number of squashed operands that are examined and possibly removed from graph
system.cpu.iq.issued_per_cycle::samples      10866247                       # Number of insts issued each cycle
system.cpu.iq.issued_per_cycle::mean         3.648517                       # Number of insts issued each cycle
system.cpu.iq.issued_per_cycle::stdev        2.387590                       # Number of insts issued each cycle
system.cpu.iq.issued_per_cycle::underflows            0      0.00%      0.00% # Number of insts issued each cycle
system.cpu.iq.issued_per_cycle::0             1437458     13.23%     13.23% # Number of insts issued each cycle
system.cpu.iq.issued_per_cycle::1             1173173     10.80%     24.03% # Number of insts issued each cycle
system.cpu.iq.issued_per_cycle::2             1093281     10.06%     34.09% # Number of insts issued each cycle
system.cpu.iq.issued_per_cycle::3             1437932     13.23%     47.32% # Number of insts issued each cycle
system.cpu.iq.issued_per_cycle::4             1526208     14.05%     61.36% # Number of insts issued each cycle
system.cpu.iq.issued_per_cycle::5             1258830     11.58%     72.95% # Number of insts issued each cycle
system.cpu.iq.issued_per_cycle::6             1610519     14.82%     87.77% # Number of insts issued each cycle
system.cpu.iq.issued_per_cycle::7              720710      6.63%     94.40% # Number of insts issued each cycle
system.cpu.iq.issued_per_cycle::8              608136      5.60%    100.00% # Number of insts issued each cycle
system.cpu.iq.issued_per_cycle::overflows            0      0.00%    100.00% # Number of insts issued each cycle
system.cpu.iq.issued_per_cycle::min_value            0                       # Number of insts issued each cycle
system.cpu.iq.issued_per_cycle::max_value            8                       # Number of insts issued each cycle
system.cpu.iq.issued_per_cycle::total        10866247                       # Number of insts issued each cycle
system.cpu.iq.rate                           3.593878                       # Inst issue rate
system.cpu.iq.vec_alu_accesses                      0                       # Number of vector alu accesses
system.cpu.iq.vec_inst_queue_reads                  0                       # Number of vector instruction queue reads
system.cpu.iq.vec_inst_queue_wakeup_accesses            0                       # Number of vector instruction queue wakeup accesses
system.cpu.iq.vec_inst_queue_writes                 0                       # Number of vector instruction queue writes
system.cpu.loadValPred.constant_verification_unit.constLoadHits        12983                       # Number of loads marked constant that hit in the CVU CAM
system.cpu.loadValPred.constant_verification_unit.constLoadMisses      2124426                       # Number of loads marked constant that missed in the CVU CAM
system.cpu.loadValPred.constant_verification_unit.numCAMReplacements       956533                       # Number of CVU CAM entries replaced
system.cpu.loadValPred.constant_verification_unit.numLoadAccesses      2137409                       # Number of loads marked constant which accessed the CVU
system.cpu.loadValPred.constant_verification_unit.numStoreAccesses      2894641                       # Number of store instructions which accessed the CVU
system.cpu.loadValPred.constant_verification_unit.numStoreHits       110360                       # Number of stores that hit in the CVU CAM
system.cpu.loadValPred.constant_verification_unit.numStoreMisses      2784281                       # Number of stores that missed in the CVU CAM
system.cpu.loadValPred.numConstLoads          1079203                       # Number of loads classified as constant
system.cpu.loadValPred.numConstLoadsCorrect        12983                       # Number of constant loads correctly predicted
system.cpu.loadValPred.numConstLoadsMispredicted      2124426                       # Number of constant loads incorrectly predicted
system.cpu.loadValPred.numConstValOne           77250                       # Number of constant loads with value 1
system.cpu.loadValPred.numConstValZero         129377                       # Number of constant loads with value 0
system.cpu.loadValPred.numPredictableLoads      1152522                       # Number of loads classified as predictable
system.cpu.loadValPred.numPredictableLoadsCorrect      1068857                       # Number of loads correctly classified as predictable
system.cpu.loadValPred.numPredictableLoadsIncorrect        64658                       # Number of loads incorrectly classified as predictable
system.cpu.loadValPred.totalLoads             4489421                       # Total loads processed by the Load value predictor
system.cpu.memDep0.conflictingLoads            155839                       # Number of conflicting loads.
system.cpu.memDep0.conflictingStores            54548                       # Number of conflicting stores.
system.cpu.memDep0.insertedLoads              4489421                       # Number of loads inserted to the mem dependence unit.
system.cpu.memDep0.insertedStores             2921606                       # Number of stores inserted to the mem dependence unit.
system.cpu.misc_regfile_reads                16545060                       # number of misc regfile reads
system.cpu.misc_regfile_writes                     36                       # number of misc regfile writes
system.cpu.numCycles                         11031450                       # number of cpu cycles simulated
system.cpu.numWorkItemsCompleted                    0                       # number of work items this cpu completed
system.cpu.numWorkItemsStarted                      0                       # number of work items this cpu started
system.cpu.timesIdled                             890                       # Number of times that the entire CPU went into an idle state and unscheduled itself
system.cpu.workload.numSyscalls                  8267                       # Number of system calls
system.membus.snoop_filter.hit_multi_requests            0                       # Number of requests hitting in the snoop filter with multiple (>1) holders of the requested data.
system.membus.snoop_filter.hit_multi_snoops            0                       # Number of snoops hitting in the snoop filter with multiple (>1) holders of the requested data.
system.membus.snoop_filter.hit_single_requests          259                       # Number of requests hitting in the snoop filter with a single holder of the requested data.
system.membus.snoop_filter.hit_single_snoops            0                       # Number of snoops hitting in the snoop filter with a single holder of the requested data.
system.membus.snoop_filter.tot_requests          4116                       # Total number of requests made to the snoop filter.
system.membus.snoop_filter.tot_snoops               0                       # Total number of snoops made to the snoop filter.
system.tol2bus.snoop_filter.hit_multi_requests            3                       # Number of requests hitting in the snoop filter with multiple (>1) holders of the requested data.
system.tol2bus.snoop_filter.hit_multi_snoops            0                       # Number of snoops hitting in the snoop filter with multiple (>1) holders of the requested data.
system.tol2bus.snoop_filter.hit_single_requests         3385                       # Number of requests hitting in the snoop filter with a single holder of the requested data.
system.tol2bus.snoop_filter.hit_single_snoops           60                       # Number of snoops hitting in the snoop filter with a single holder of the requested data.
system.tol2bus.snoop_filter.tot_requests         7794                       # Total number of requests made to the snoop filter.
system.tol2bus.snoop_filter.tot_snoops             60                       # Total number of snoops made to the snoop filter.
system.membus.trans_dist::ReadResp               3307                       # Transaction distribution
system.membus.trans_dist::WritebackDirty           53                       # Transaction distribution
system.membus.trans_dist::CleanEvict              206                       # Transaction distribution
system.membus.trans_dist::ReadExReq               550                       # Transaction distribution
system.membus.trans_dist::ReadExResp              550                       # Transaction distribution
system.membus.trans_dist::ReadSharedReq          3307                       # Transaction distribution
system.membus.pkt_count_system.l2.mem_side_port::system.mem_ctrls.port         7973                       # Packet count per connected requestor and responder (bytes)
system.membus.pkt_count_system.l2.mem_side_port::total         7973                       # Packet count per connected requestor and responder (bytes)
system.membus.pkt_count::total                   7973                       # Packet count per connected requestor and responder (bytes)
system.membus.pkt_size_system.l2.mem_side_port::system.mem_ctrls.port       250240                       # Cumulative packet size per connected requestor and responder (bytes)
system.membus.pkt_size_system.l2.mem_side_port::total       250240                       # Cumulative packet size per connected requestor and responder (bytes)
system.membus.pkt_size::total                  250240                       # Cumulative packet size per connected requestor and responder (bytes)
system.membus.snoops                                0                       # Total snoops (count)
system.membus.snoopTraffic                          0                       # Total snoop traffic (bytes)
system.membus.snoop_fanout::samples              3857                       # Request fanout histogram
system.membus.snoop_fanout::mean                    0                       # Request fanout histogram
system.membus.snoop_fanout::stdev                   0                       # Request fanout histogram
system.membus.snoop_fanout::underflows              0      0.00%      0.00% # Request fanout histogram
system.membus.snoop_fanout::0                    3857    100.00%    100.00% # Request fanout histogram
system.membus.snoop_fanout::1                       0      0.00%    100.00% # Request fanout histogram
system.membus.snoop_fanout::overflows               0      0.00%    100.00% # Request fanout histogram
system.membus.snoop_fanout::min_value               0                       # Request fanout histogram
system.membus.snoop_fanout::max_value               0                       # Request fanout histogram
system.membus.snoop_fanout::total                3857                       # Request fanout histogram
system.membus.reqLayer2.occupancy             6115530                       # Layer occupancy (ticks)
system.membus.reqLayer2.utilization               0.2                       # Layer utilization (%)
system.membus.respLayer1.occupancy           20369678                       # Layer occupancy (ticks)
system.membus.respLayer1.utilization              0.7                       # Layer utilization (%)
system.membus.power_state.pwrStateResidencyTicks::UNDEFINED   3066742822                       # Cumulative time (in ticks) in various power states
system.tol2bus.trans_dist::ReadResp              3797                       # Transaction distribution
system.tol2bus.trans_dist::WritebackDirty          758                       # Transaction distribution
system.tol2bus.trans_dist::WritebackClean          778                       # Transaction distribution
system.tol2bus.trans_dist::CleanEvict            2167                       # Transaction distribution
system.tol2bus.trans_dist::UpgradeReq               1                       # Transaction distribution
system.tol2bus.trans_dist::UpgradeResp              1                       # Transaction distribution
system.tol2bus.trans_dist::ReadExReq              612                       # Transaction distribution
system.tol2bus.trans_dist::ReadExResp             612                       # Transaction distribution
system.tol2bus.trans_dist::ReadCleanReq          1291                       # Transaction distribution
system.tol2bus.trans_dist::ReadSharedReq         2506                       # Transaction distribution
system.tol2bus.pkt_count_system.cpu.icache.mem_side_port::system.l2.cpu_side_port         3359                       # Packet count per connected requestor and responder (bytes)
system.tol2bus.pkt_count_system.cpu.dcache.mem_side_port::system.l2.cpu_side_port         8844                       # Packet count per connected requestor and responder (bytes)
system.tol2bus.pkt_count::total                 12203                       # Packet count per connected requestor and responder (bytes)
system.tol2bus.pkt_size_system.cpu.icache.mem_side_port::system.l2.cpu_side_port       132352                       # Cumulative packet size per connected requestor and responder (bytes)
system.tol2bus.pkt_size_system.cpu.dcache.mem_side_port::system.l2.cpu_side_port       244672                       # Cumulative packet size per connected requestor and responder (bytes)
system.tol2bus.pkt_size::total                 377024                       # Cumulative packet size per connected requestor and responder (bytes)
system.tol2bus.snoops                             320                       # Total snoops (count)
system.tol2bus.snoopTraffic                      3456                       # Total snoop traffic (bytes)
system.tol2bus.snoop_fanout::samples             4729                       # Request fanout histogram
system.tol2bus.snoop_fanout::mean            0.013534                       # Request fanout histogram
system.tol2bus.snoop_fanout::stdev           0.115556                       # Request fanout histogram
system.tol2bus.snoop_fanout::underflows             0      0.00%      0.00% # Request fanout histogram
system.tol2bus.snoop_fanout::0                   4665     98.65%     98.65% # Request fanout histogram
system.tol2bus.snoop_fanout::1                     64      1.35%    100.00% # Request fanout histogram
system.tol2bus.snoop_fanout::2                      0      0.00%    100.00% # Request fanout histogram
system.tol2bus.snoop_fanout::3                      0      0.00%    100.00% # Request fanout histogram
system.tol2bus.snoop_fanout::4                      0      0.00%    100.00% # Request fanout histogram
system.tol2bus.snoop_fanout::overflows              0      0.00%    100.00% # Request fanout histogram
system.tol2bus.snoop_fanout::min_value              0                       # Request fanout histogram
system.tol2bus.snoop_fanout::max_value              1                       # Request fanout histogram
system.tol2bus.snoop_fanout::total               4729                       # Request fanout histogram
system.tol2bus.reqLayer0.occupancy            2991280                       # Layer occupancy (ticks)
system.tol2bus.reqLayer0.utilization              0.1                       # Layer utilization (%)
system.tol2bus.respLayer1.occupancy           2600690                       # Layer occupancy (ticks)
system.tol2bus.respLayer1.utilization             0.1                       # Layer utilization (%)
system.tol2bus.respLayer0.occupancy           1076694                       # Layer occupancy (ticks)
system.tol2bus.respLayer0.utilization             0.0                       # Layer utilization (%)
system.tol2bus.power_state.pwrStateResidencyTicks::UNDEFINED   3066742822                       # Cumulative time (in ticks) in various power states
system.voltage_domain.voltage                       1                       # Voltage in Volts
system.clk_domain.clock                          1000                       # Clock period in ticks
system.l2.demand_hits::.cpu.inst                   25                       # number of demand (read+write) hits
system.l2.demand_hits::.cpu.data                  526                       # number of demand (read+write) hits
system.l2.demand_hits::total                      551                       # number of demand (read+write) hits
system.l2.overall_hits::.cpu.inst                  25                       # number of overall hits
system.l2.overall_hits::.cpu.data                 526                       # number of overall hits
system.l2.overall_hits::total                     551                       # number of overall hits
system.l2.demand_misses::.cpu.inst               1265                       # number of demand (read+write) misses
system.l2.demand_misses::.cpu.data               2592                       # number of demand (read+write) misses
system.l2.demand_misses::total                   3857                       # number of demand (read+write) misses
system.l2.overall_misses::.cpu.inst              1265                       # number of overall misses
system.l2.overall_misses::.cpu.data              2592                       # number of overall misses
system.l2.overall_misses::total                  3857                       # number of overall misses
system.l2.demand_miss_latency::.cpu.inst     85808314                       # number of demand (read+write) miss cycles
system.l2.demand_miss_latency::.cpu.data    177707052                       # number of demand (read+write) miss cycles
system.l2.demand_miss_latency::total        263515366                       # number of demand (read+write) miss cycles
system.l2.overall_miss_latency::.cpu.inst     85808314                       # number of overall miss cycles
system.l2.overall_miss_latency::.cpu.data    177707052                       # number of overall miss cycles
system.l2.overall_miss_latency::total       263515366                       # number of overall miss cycles
system.l2.demand_accesses::.cpu.inst             1290                       # number of demand (read+write) accesses
system.l2.demand_accesses::.cpu.data             3118                       # number of demand (read+write) accesses
system.l2.demand_accesses::total                 4408                       # number of demand (read+write) accesses
system.l2.overall_accesses::.cpu.inst            1290                       # number of overall (read+write) accesses
system.l2.overall_accesses::.cpu.data            3118                       # number of overall (read+write) accesses
system.l2.overall_accesses::total                4408                       # number of overall (read+write) accesses
system.l2.demand_miss_rate::.cpu.inst        0.980620                       # miss rate for demand accesses
system.l2.demand_miss_rate::.cpu.data        0.831302                       # miss rate for demand accesses
system.l2.demand_miss_rate::total            0.875000                       # miss rate for demand accesses
system.l2.overall_miss_rate::.cpu.inst       0.980620                       # miss rate for overall accesses
system.l2.overall_miss_rate::.cpu.data       0.831302                       # miss rate for overall accesses
system.l2.overall_miss_rate::total           0.875000                       # miss rate for overall accesses
system.l2.demand_avg_miss_latency::.cpu.inst 67832.659289                       # average overall miss latency
system.l2.demand_avg_miss_latency::.cpu.data 68559.819444                       # average overall miss latency
system.l2.demand_avg_miss_latency::total 68321.329012                       # average overall miss latency
system.l2.overall_avg_miss_latency::.cpu.inst 67832.659289                       # average overall miss latency
system.l2.overall_avg_miss_latency::.cpu.data 68559.819444                       # average overall miss latency
system.l2.overall_avg_miss_latency::total 68321.329012                       # average overall miss latency
system.l2.blocked_cycles::no_mshrs                  0                       # number of cycles access was blocked
system.l2.blocked_cycles::no_targets                0                       # number of cycles access was blocked
system.l2.blocked::no_mshrs                         0                       # number of cycles access was blocked
system.l2.blocked::no_targets                       0                       # number of cycles access was blocked
system.l2.avg_blocked_cycles::no_mshrs            nan                       # average number of cycles each access was blocked
system.l2.avg_blocked_cycles::no_targets          nan                       # average number of cycles each access was blocked
system.l2.writebacks::.writebacks                  53                       # number of writebacks
system.l2.writebacks::total                        53                       # number of writebacks
system.l2.demand_mshr_misses::.cpu.inst          1265                       # number of demand (read+write) MSHR misses
system.l2.demand_mshr_misses::.cpu.data          2592                       # number of demand (read+write) MSHR misses
system.l2.demand_mshr_misses::total              3857                       # number of demand (read+write) MSHR misses
system.l2.overall_mshr_misses::.cpu.inst         1265                       # number of overall MSHR misses
system.l2.overall_mshr_misses::.cpu.data         2592                       # number of overall MSHR misses
system.l2.overall_mshr_misses::total             3857                       # number of overall MSHR misses
system.l2.demand_mshr_miss_latency::.cpu.inst     78600212                       # number of demand (read+write) MSHR miss cycles
system.l2.demand_mshr_miss_latency::.cpu.data    162939288                       # number of demand (read+write) MSHR miss cycles
system.l2.demand_mshr_miss_latency::total    241539500                       # number of demand (read+write) MSHR miss cycles
system.l2.overall_mshr_miss_latency::.cpu.inst     78600212                       # number of overall MSHR miss cycles
system.l2.overall_mshr_miss_latency::.cpu.data    162939288                       # number of overall MSHR miss cycles
system.l2.overall_mshr_miss_latency::total    241539500                       # number of overall MSHR miss cycles
system.l2.demand_mshr_miss_rate::.cpu.inst     0.980620                       # mshr miss rate for demand accesses
system.l2.demand_mshr_miss_rate::.cpu.data     0.831302                       # mshr miss rate for demand accesses
system.l2.demand_mshr_miss_rate::total       0.875000                       # mshr miss rate for demand accesses
system.l2.overall_mshr_miss_rate::.cpu.inst     0.980620                       # mshr miss rate for overall accesses
system.l2.overall_mshr_miss_rate::.cpu.data     0.831302                       # mshr miss rate for overall accesses
system.l2.overall_mshr_miss_rate::total      0.875000                       # mshr miss rate for overall accesses
system.l2.demand_avg_mshr_miss_latency::.cpu.inst 62134.554941                       # average overall mshr miss latency
system.l2.demand_avg_mshr_miss_latency::.cpu.data 62862.379630                       # average overall mshr miss latency
system.l2.demand_avg_mshr_miss_latency::total 62623.671247                       # average overall mshr miss latency
system.l2.overall_avg_mshr_miss_latency::.cpu.inst 62134.554941                       # average overall mshr miss latency
system.l2.overall_avg_mshr_miss_latency::.cpu.data 62862.379630                       # average overall mshr miss latency
system.l2.overall_avg_mshr_miss_latency::total 62623.671247                       # average overall mshr miss latency
system.l2.replacements                            319                       # number of replacements
system.l2.WritebackDirty_hits::.writebacks          705                       # number of WritebackDirty hits
system.l2.WritebackDirty_hits::total              705                       # number of WritebackDirty hits
system.l2.WritebackDirty_accesses::.writebacks          705                       # number of WritebackDirty accesses(hits+misses)
system.l2.WritebackDirty_accesses::total          705                       # number of WritebackDirty accesses(hits+misses)
system.l2.WritebackClean_hits::.writebacks          778                       # number of WritebackClean hits
system.l2.WritebackClean_hits::total              778                       # number of WritebackClean hits
system.l2.WritebackClean_accesses::.writebacks          778                       # number of WritebackClean accesses(hits+misses)
system.l2.WritebackClean_accesses::total          778                       # number of WritebackClean accesses(hits+misses)
system.l2.UpgradeReq_hits::.cpu.data                1                       # number of UpgradeReq hits
system.l2.UpgradeReq_hits::total                    1                       # number of UpgradeReq hits
system.l2.UpgradeReq_accesses::.cpu.data            1                       # number of UpgradeReq accesses(hits+misses)
system.l2.UpgradeReq_accesses::total                1                       # number of UpgradeReq accesses(hits+misses)
system.l2.ReadExReq_hits::.cpu.data                62                       # number of ReadExReq hits
system.l2.ReadExReq_hits::total                    62                       # number of ReadExReq hits
system.l2.ReadExReq_misses::.cpu.data             550                       # number of ReadExReq misses
system.l2.ReadExReq_misses::total                 550                       # number of ReadExReq misses
system.l2.ReadExReq_miss_latency::.cpu.data     37540564                       # number of ReadExReq miss cycles
system.l2.ReadExReq_miss_latency::total      37540564                       # number of ReadExReq miss cycles
system.l2.ReadExReq_accesses::.cpu.data           612                       # number of ReadExReq accesses(hits+misses)
system.l2.ReadExReq_accesses::total               612                       # number of ReadExReq accesses(hits+misses)
system.l2.ReadExReq_miss_rate::.cpu.data     0.898693                       # miss rate for ReadExReq accesses
system.l2.ReadExReq_miss_rate::total         0.898693                       # miss rate for ReadExReq accesses
system.l2.ReadExReq_avg_miss_latency::.cpu.data 68255.570909                       # average ReadExReq miss latency
system.l2.ReadExReq_avg_miss_latency::total 68255.570909                       # average ReadExReq miss latency
system.l2.ReadExReq_mshr_misses::.cpu.data          550                       # number of ReadExReq MSHR misses
system.l2.ReadExReq_mshr_misses::total            550                       # number of ReadExReq MSHR misses
system.l2.ReadExReq_mshr_miss_latency::.cpu.data     34406416                       # number of ReadExReq MSHR miss cycles
system.l2.ReadExReq_mshr_miss_latency::total     34406416                       # number of ReadExReq MSHR miss cycles
system.l2.ReadExReq_mshr_miss_rate::.cpu.data     0.898693                       # mshr miss rate for ReadExReq accesses
system.l2.ReadExReq_mshr_miss_rate::total     0.898693                       # mshr miss rate for ReadExReq accesses
system.l2.ReadExReq_avg_mshr_miss_latency::.cpu.data 62557.120000                       # average ReadExReq mshr miss latency
system.l2.ReadExReq_avg_mshr_miss_latency::total 62557.120000                       # average ReadExReq mshr miss latency
system.l2.ReadCleanReq_hits::.cpu.inst             25                       # number of ReadCleanReq hits
system.l2.ReadCleanReq_hits::total                 25                       # number of ReadCleanReq hits
system.l2.ReadCleanReq_misses::.cpu.inst         1265                       # number of ReadCleanReq misses
system.l2.ReadCleanReq_misses::total             1265                       # number of ReadCleanReq misses
system.l2.ReadCleanReq_miss_latency::.cpu.inst     85808314                       # number of ReadCleanReq miss cycles
system.l2.ReadCleanReq_miss_latency::total     85808314                       # number of ReadCleanReq miss cycles
system.l2.ReadCleanReq_accesses::.cpu.inst         1290                       # number of ReadCleanReq accesses(hits+misses)
system.l2.ReadCleanReq_accesses::total           1290                       # number of ReadCleanReq accesses(hits+misses)
system.l2.ReadCleanReq_miss_rate::.cpu.inst     0.980620                       # miss rate for ReadCleanReq accesses
system.l2.ReadCleanReq_miss_rate::total      0.980620                       # miss rate for ReadCleanReq accesses
system.l2.ReadCleanReq_avg_miss_latency::.cpu.inst 67832.659289                       # average ReadCleanReq miss latency
system.l2.ReadCleanReq_avg_miss_latency::total 67832.659289                       # average ReadCleanReq miss latency
system.l2.ReadCleanReq_mshr_misses::.cpu.inst         1265                       # number of ReadCleanReq MSHR misses
system.l2.ReadCleanReq_mshr_misses::total         1265                       # number of ReadCleanReq MSHR misses
system.l2.ReadCleanReq_mshr_miss_latency::.cpu.inst     78600212                       # number of ReadCleanReq MSHR miss cycles
system.l2.ReadCleanReq_mshr_miss_latency::total     78600212                       # number of ReadCleanReq MSHR miss cycles
system.l2.ReadCleanReq_mshr_miss_rate::.cpu.inst     0.980620                       # mshr miss rate for ReadCleanReq accesses
system.l2.ReadCleanReq_mshr_miss_rate::total     0.980620                       # mshr miss rate for ReadCleanReq accesses
system.l2.ReadCleanReq_avg_mshr_miss_latency::.cpu.inst 62134.554941                       # average ReadCleanReq mshr miss latency
system.l2.ReadCleanReq_avg_mshr_miss_latency::total 62134.554941                       # average ReadCleanReq mshr miss latency
system.l2.ReadSharedReq_hits::.cpu.data           464                       # number of ReadSharedReq hits
system.l2.ReadSharedReq_hits::total               464                       # number of ReadSharedReq hits
system.l2.ReadSharedReq_misses::.cpu.data         2042                       # number of ReadSharedReq misses
system.l2.ReadSharedReq_misses::total            2042                       # number of ReadSharedReq misses
system.l2.ReadSharedReq_miss_latency::.cpu.data    140166488                       # number of ReadSharedReq miss cycles
system.l2.ReadSharedReq_miss_latency::total    140166488                       # number of ReadSharedReq miss cycles
system.l2.ReadSharedReq_accesses::.cpu.data         2506                       # number of ReadSharedReq accesses(hits+misses)
system.l2.ReadSharedReq_accesses::total          2506                       # number of ReadSharedReq accesses(hits+misses)
system.l2.ReadSharedReq_miss_rate::.cpu.data     0.814844                       # miss rate for ReadSharedReq accesses
system.l2.ReadSharedReq_miss_rate::total     0.814844                       # miss rate for ReadSharedReq accesses
system.l2.ReadSharedReq_avg_miss_latency::.cpu.data 68641.766895                       # average ReadSharedReq miss latency
system.l2.ReadSharedReq_avg_miss_latency::total 68641.766895                       # average ReadSharedReq miss latency
system.l2.ReadSharedReq_mshr_misses::.cpu.data         2042                       # number of ReadSharedReq MSHR misses
system.l2.ReadSharedReq_mshr_misses::total         2042                       # number of ReadSharedReq MSHR misses
system.l2.ReadSharedReq_mshr_miss_latency::.cpu.data    128532872                       # number of ReadSharedReq MSHR miss cycles
system.l2.ReadSharedReq_mshr_miss_latency::total    128532872                       # number of ReadSharedReq MSHR miss cycles
system.l2.ReadSharedReq_mshr_miss_rate::.cpu.data     0.814844                       # mshr miss rate for ReadSharedReq accesses
system.l2.ReadSharedReq_mshr_miss_rate::total     0.814844                       # mshr miss rate for ReadSharedReq accesses
system.l2.ReadSharedReq_avg_mshr_miss_latency::.cpu.data 62944.599412                       # average ReadSharedReq mshr miss latency
system.l2.ReadSharedReq_avg_mshr_miss_latency::total 62944.599412                       # average ReadSharedReq mshr miss latency
system.l2.power_state.pwrStateResidencyTicks::UNDEFINED   3066742822                       # Cumulative time (in ticks) in various power states
system.l2.tags.tagsinuse                  3488.494619                       # Cycle average of tags in use
system.l2.tags.total_refs                        7792                       # Total number of references to valid blocks.
system.l2.tags.sampled_refs                      3900                       # Sample count of references to valid blocks.
system.l2.tags.avg_refs                      1.997949                       # Average number of references to valid blocks.
system.l2.tags.warmup_cycle                     77000                       # Cycle when the warmup percentage was hit.
system.l2.tags.occ_blocks::.writebacks      40.551981                       # Average occupied blocks per requestor
system.l2.tags.occ_blocks::.cpu.inst      1111.094377                       # Average occupied blocks per requestor
system.l2.tags.occ_blocks::.cpu.data      2336.848261                       # Average occupied blocks per requestor
system.l2.tags.occ_percent::.writebacks      0.009900                       # Average percentage of cache occupancy
system.l2.tags.occ_percent::.cpu.inst        0.271263                       # Average percentage of cache occupancy
system.l2.tags.occ_percent::.cpu.data        0.570520                       # Average percentage of cache occupancy
system.l2.tags.occ_percent::total            0.851683                       # Average percentage of cache occupancy
system.l2.tags.occ_task_id_blocks::1024          3581                       # Occupied blocks per task id
system.l2.tags.age_task_id_blocks_1024::3         3581                       # Occupied blocks per task id
system.l2.tags.occ_task_id_percent::1024     0.874268                       # Percentage of cache occupancy per task id
system.l2.tags.tag_accesses                     66236                       # Number of tag accesses
system.l2.tags.data_accesses                    66236                       # Number of data accesses
system.l2.tags.power_state.pwrStateResidencyTicks::UNDEFINED   3066742822                       # Cumulative time (in ticks) in various power states
system.cpu_voltage_domain.voltage                   1                       # Voltage in Volts
system.mem_ctrls.avgPriority_.writebacks::samples        53.00                       # Average QoS priority value for accepted requests
system.mem_ctrls.avgPriority_.cpu.inst::samples      1265.00                       # Average QoS priority value for accepted requests
system.mem_ctrls.avgPriority_.cpu.data::samples      2587.00                       # Average QoS priority value for accepted requests
system.mem_ctrls.priorityMinLatency      0.000000018750                       # per QoS priority minimum request to response latency (s)
system.mem_ctrls.priorityMaxLatency      0.000117074798                       # per QoS priority maximum request to response latency (s)
system.mem_ctrls.numReadWriteTurnArounds            2                       # Number of turnarounds from READ to WRITE
system.mem_ctrls.numWriteReadTurnArounds            2                       # Number of turnarounds from WRITE to READ
system.mem_ctrls.numStayReadState                8473                       # Number of times bus staying in READ state
system.mem_ctrls.numStayWriteState                 30                       # Number of times bus staying in WRITE state
system.mem_ctrls.readReqs                        3857                       # Number of read requests accepted
system.mem_ctrls.writeReqs                         53                       # Number of write requests accepted
system.mem_ctrls.readBursts                      3857                       # Number of controller read bursts, including those serviced by the write queue
system.mem_ctrls.writeBursts                       53                       # Number of controller write bursts, including those merged in the write queue
system.mem_ctrls.servicedByWrQ                      5                       # Number of controller read bursts serviced by the write queue
system.mem_ctrls.mergedWrBursts                     0                       # Number of controller write bursts merged with an existing one
system.mem_ctrls.neitherReadNorWriteReqs            0                       # Number of requests that are neither read nor write
system.mem_ctrls.avgRdQLen                       1.03                       # Average read queue length when enqueuing
system.mem_ctrls.avgWrQLen                      19.95                       # Average write queue length when enqueuing
system.mem_ctrls.numRdRetry                         0                       # Number of times read queue was full causing retry
system.mem_ctrls.numWrRetry                         0                       # Number of times write queue was full causing retry
system.mem_ctrls.readPktSize::0                     0                       # Read request sizes (log2)
system.mem_ctrls.readPktSize::1                     0                       # Read request sizes (log2)
system.mem_ctrls.readPktSize::2                     0                       # Read request sizes (log2)
system.mem_ctrls.readPktSize::3                     0                       # Read request sizes (log2)
system.mem_ctrls.readPktSize::4                     0                       # Read request sizes (log2)
system.mem_ctrls.readPktSize::5                     0                       # Read request sizes (log2)
system.mem_ctrls.readPktSize::6                  3857                       # Read request sizes (log2)
system.mem_ctrls.writePktSize::0                    0                       # Write request sizes (log2)
system.mem_ctrls.writePktSize::1                    0                       # Write request sizes (log2)
system.mem_ctrls.writePktSize::2                    0                       # Write request sizes (log2)
system.mem_ctrls.writePktSize::3                    0                       # Write request sizes (log2)
system.mem_ctrls.writePktSize::4                    0                       # Write request sizes (log2)
system.mem_ctrls.writePktSize::5                    0                       # Write request sizes (log2)
system.mem_ctrls.writePktSize::6                   53                       # Write request sizes (log2)
system.mem_ctrls.rdQLenPdf::0                    2365                       # What read queue length does an incoming req see
system.mem_ctrls.rdQLenPdf::1                    1049                       # What read queue length does an incoming req see
system.mem_ctrls.rdQLenPdf::2                     335                       # What read queue length does an incoming req see
system.mem_ctrls.rdQLenPdf::3                      98                       # What read queue length does an incoming req see
system.mem_ctrls.rdQLenPdf::4                       4                       # What read queue length does an incoming req see
system.mem_ctrls.rdQLenPdf::5                       1                       # What read queue length does an incoming req see
system.mem_ctrls.rdQLenPdf::6                       0                       # What read queue length does an incoming req see
system.mem_ctrls.rdQLenPdf::7                       0                       # What read queue length does an incoming req see
system.mem_ctrls.rdQLenPdf::8                       0                       # What read queue length does an incoming req see
system.mem_ctrls.rdQLenPdf::9                       0                       # What read queue length does an incoming req see
system.mem_ctrls.rdQLenPdf::10                      0                       # What read queue length does an incoming req see
system.mem_ctrls.rdQLenPdf::11                      0                       # What read queue length does an incoming req see
system.mem_ctrls.rdQLenPdf::12                      0                       # What read queue length does an incoming req see
system.mem_ctrls.rdQLenPdf::13                      0                       # What read queue length does an incoming req see
system.mem_ctrls.rdQLenPdf::14                      0                       # What read queue length does an incoming req see
system.mem_ctrls.rdQLenPdf::15                      0                       # What read queue length does an incoming req see
system.mem_ctrls.rdQLenPdf::16                      0                       # What read queue length does an incoming req see
system.mem_ctrls.rdQLenPdf::17                      0                       # What read queue length does an incoming req see
system.mem_ctrls.rdQLenPdf::18                      0                       # What read queue length does an incoming req see
system.mem_ctrls.rdQLenPdf::19                      0                       # What read queue length does an incoming req see
system.mem_ctrls.rdQLenPdf::20                      0                       # What read queue length does an incoming req see
system.mem_ctrls.rdQLenPdf::21                      0                       # What read queue length does an incoming req see
system.mem_ctrls.rdQLenPdf::22                      0                       # What read queue length does an incoming req see
system.mem_ctrls.rdQLenPdf::23                      0                       # What read queue length does an incoming req see
system.mem_ctrls.rdQLenPdf::24                      0                       # What read queue length does an incoming req see
system.mem_ctrls.rdQLenPdf::25                      0                       # What read queue length does an incoming req see
system.mem_ctrls.rdQLenPdf::26                      0                       # What read queue length does an incoming req see
system.mem_ctrls.rdQLenPdf::27                      0                       # What read queue length does an incoming req see
system.mem_ctrls.rdQLenPdf::28                      0                       # What read queue length does an incoming req see
system.mem_ctrls.rdQLenPdf::29                      0                       # What read queue length does an incoming req see
system.mem_ctrls.rdQLenPdf::30                      0                       # What read queue length does an incoming req see
system.mem_ctrls.rdQLenPdf::31                      0                       # What read queue length does an incoming req see
system.mem_ctrls.wrQLenPdf::0                       1                       # What write queue length does an incoming req see
system.mem_ctrls.wrQLenPdf::1                       1                       # What write queue length does an incoming req see
system.mem_ctrls.wrQLenPdf::2                       1                       # What write queue length does an incoming req see
system.mem_ctrls.wrQLenPdf::3                       1                       # What write queue length does an incoming req see
system.mem_ctrls.wrQLenPdf::4                       1                       # What write queue length does an incoming req see
system.mem_ctrls.wrQLenPdf::5                       1                       # What write queue length does an incoming req see
system.mem_ctrls.wrQLenPdf::6                       1                       # What write queue length does an incoming req see
system.mem_ctrls.wrQLenPdf::7                       1                       # What write queue length does an incoming req see
system.mem_ctrls.wrQLenPdf::8                       1                       # What write queue length does an incoming req see
system.mem_ctrls.wrQLenPdf::9                       1                       # What write queue length does an incoming req see
system.mem_ctrls.wrQLenPdf::10                      1                       # What write queue length does an incoming req see
system.mem_ctrls.wrQLenPdf::11                      1                       # What write queue length does an incoming req see
system.mem_ctrls.wrQLenPdf::12                      1                       # What write queue length does an incoming req see
system.mem_ctrls.wrQLenPdf::13                      1                       # What write queue length does an incoming req see
system.mem_ctrls.wrQLenPdf::14                      1                       # What write queue length does an incoming req see
system.mem_ctrls.wrQLenPdf::15                      1                       # What write queue length does an incoming req see
system.mem_ctrls.wrQLenPdf::16                      1                       # What write queue length does an incoming req see
system.mem_ctrls.wrQLenPdf::17                      3                       # What write queue length does an incoming req see
system.mem_ctrls.wrQLenPdf::18                      3                       # What write queue length does an incoming req see
system.mem_ctrls.wrQLenPdf::19                      3                       # What write queue length does an incoming req see
system.mem_ctrls.wrQLenPdf::20                      3                       # What write queue length does an incoming req see
system.mem_ctrls.wrQLenPdf::21                      2                       # What write queue length does an incoming req see
system.mem_ctrls.wrQLenPdf::22                      2                       # What write queue length does an incoming req see
system.mem_ctrls.wrQLenPdf::23                      2                       # What write queue length does an incoming req see
system.mem_ctrls.wrQLenPdf::24                      2                       # What write queue length does an incoming req see
system.mem_ctrls.wrQLenPdf::25                      2                       # What write queue length does an incoming req see
system.mem_ctrls.wrQLenPdf::26                      2                       # What write queue length does an incoming req see
system.mem_ctrls.wrQLenPdf::27                      2                       # What write queue length does an incoming req see
system.mem_ctrls.wrQLenPdf::28                      2                       # What write queue length does an incoming req see
system.mem_ctrls.wrQLenPdf::29                      2                       # What write queue length does an incoming req see
system.mem_ctrls.wrQLenPdf::30                      2                       # What write queue length does an incoming req see
system.mem_ctrls.wrQLenPdf::31                      2                       # What write queue length does an incoming req see
system.mem_ctrls.wrQLenPdf::32                      2                       # What write queue length does an incoming req see
system.mem_ctrls.wrQLenPdf::33                      0                       # What write queue length does an incoming req see
system.mem_ctrls.wrQLenPdf::34                      0                       # What write queue length does an incoming req see
system.mem_ctrls.wrQLenPdf::35                      0                       # What write queue length does an incoming req see
system.mem_ctrls.wrQLenPdf::36                      0                       # What write queue length does an incoming req see
system.mem_ctrls.wrQLenPdf::37                      0                       # What write queue length does an incoming req see
system.mem_ctrls.wrQLenPdf::38                      0                       # What write queue length does an incoming req see
system.mem_ctrls.wrQLenPdf::39                      0                       # What write queue length does an incoming req see
system.mem_ctrls.wrQLenPdf::40                      0                       # What write queue length does an incoming req see
system.mem_ctrls.wrQLenPdf::41                      0                       # What write queue length does an incoming req see
system.mem_ctrls.wrQLenPdf::42                      0                       # What write queue length does an incoming req see
system.mem_ctrls.wrQLenPdf::43                      0                       # What write queue length does an incoming req see
system.mem_ctrls.wrQLenPdf::44                      0                       # What write queue length does an incoming req see
system.mem_ctrls.wrQLenPdf::45                      0                       # What write queue length does an incoming req see
system.mem_ctrls.wrQLenPdf::46                      0                       # What write queue length does an incoming req see
system.mem_ctrls.wrQLenPdf::47                      0                       # What write queue length does an incoming req see
system.mem_ctrls.wrQLenPdf::48                      0                       # What write queue length does an incoming req see
system.mem_ctrls.wrQLenPdf::49                      0                       # What write queue length does an incoming req see
system.mem_ctrls.wrQLenPdf::50                      0                       # What write queue length does an incoming req see
system.mem_ctrls.wrQLenPdf::51                      0                       # What write queue length does an incoming req see
system.mem_ctrls.wrQLenPdf::52                      0                       # What write queue length does an incoming req see
system.mem_ctrls.wrQLenPdf::53                      0                       # What write queue length does an incoming req see
system.mem_ctrls.wrQLenPdf::54                      0                       # What write queue length does an incoming req see
system.mem_ctrls.wrQLenPdf::55                      0                       # What write queue length does an incoming req see
system.mem_ctrls.wrQLenPdf::56                      0                       # What write queue length does an incoming req see
system.mem_ctrls.wrQLenPdf::57                      0                       # What write queue length does an incoming req see
system.mem_ctrls.wrQLenPdf::58                      0                       # What write queue length does an incoming req see
system.mem_ctrls.wrQLenPdf::59                      0                       # What write queue length does an incoming req see
system.mem_ctrls.wrQLenPdf::60                      0                       # What write queue length does an incoming req see
system.mem_ctrls.wrQLenPdf::61                      0                       # What write queue length does an incoming req see
system.mem_ctrls.wrQLenPdf::62                      0                       # What write queue length does an incoming req see
system.mem_ctrls.wrQLenPdf::63                      0                       # What write queue length does an incoming req see
system.mem_ctrls.rdPerTurnAround::samples            2                       # Reads before turning the bus around for writes
system.mem_ctrls.rdPerTurnAround::mean           1891                       # Reads before turning the bus around for writes
system.mem_ctrls.rdPerTurnAround::gmean    696.646969                       # Reads before turning the bus around for writes
system.mem_ctrls.rdPerTurnAround::stdev   2486.187443                       # Reads before turning the bus around for writes
system.mem_ctrls.rdPerTurnAround::128-255            1     50.00%     50.00% # Reads before turning the bus around for writes
system.mem_ctrls.rdPerTurnAround::3584-3711            1     50.00%    100.00% # Reads before turning the bus around for writes
system.mem_ctrls.rdPerTurnAround::total             2                       # Reads before turning the bus around for writes
system.mem_ctrls.wrPerTurnAround::samples            2                       # Writes before turning the bus around for reads
system.mem_ctrls.wrPerTurnAround::mean             16                       # Writes before turning the bus around for reads
system.mem_ctrls.wrPerTurnAround::gmean     16.000000                       # Writes before turning the bus around for reads
system.mem_ctrls.wrPerTurnAround::16                2    100.00%    100.00% # Writes before turning the bus around for reads
system.mem_ctrls.wrPerTurnAround::total             2                       # Writes before turning the bus around for reads
system.mem_ctrls.bytesReadWrQ                     320                       # Total number of bytes read from write queue
system.mem_ctrls.bytesReadSys                  246848                       # Total read bytes from the system interface side
system.mem_ctrls.bytesWrittenSys                 3392                       # Total written bytes from the system interface side
system.mem_ctrls.avgRdBWSys                     80.49                       # Average system read bandwidth in MiByte/s
system.mem_ctrls.avgWrBWSys                      1.11                       # Average system write bandwidth in MiByte/s
system.mem_ctrls.totGap                     251006756                       # Total gap between requests
system.mem_ctrls.avgGap                      64196.10                       # Average gap between requests
system.mem_ctrls.requestorReadBytes::.cpu.inst        80960                       # Per-requestor bytes read from memory
system.mem_ctrls.requestorReadBytes::.cpu.data       165568                       # Per-requestor bytes read from memory
system.mem_ctrls.requestorWriteBytes::.writebacks         2048                       # Per-requestor bytes write to memory
system.mem_ctrls.requestorReadRate::.cpu.inst 26399344.418193276972                       # Per-requestor bytes read from memory rate (Bytes/sec)
system.mem_ctrls.requestorReadRate::.cpu.data 53988224.513728067279                       # Per-requestor bytes read from memory rate (Bytes/sec)
system.mem_ctrls.requestorWriteRate::.writebacks 667809.503068920807                       # Per-requestor bytes write to memory rate (Bytes/sec)
system.mem_ctrls.requestorReadAccesses::.cpu.inst         1265                       # Per-requestor read serviced memory accesses
system.mem_ctrls.requestorReadAccesses::.cpu.data         2592                       # Per-requestor read serviced memory accesses
system.mem_ctrls.requestorWriteAccesses::.writebacks           53                       # Per-requestor write serviced memory accesses
system.mem_ctrls.requestorReadTotalLat::.cpu.inst     32119558                       # Per-requestor read total memory access latency
system.mem_ctrls.requestorReadTotalLat::.cpu.data     67826380                       # Per-requestor read total memory access latency
system.mem_ctrls.requestorWriteTotalLat::.writebacks    555981764                       # Per-requestor write total memory access latency
system.mem_ctrls.requestorReadAvgLat::.cpu.inst     25390.95                       # Per-requestor read average memory access latency
system.mem_ctrls.requestorReadAvgLat::.cpu.data     26167.58                       # Per-requestor read average memory access latency
system.mem_ctrls.requestorWriteAvgLat::.writebacks  10490221.96                       # Per-requestor write average memory access latency
system.mem_ctrls.dram.bytes_read::.cpu.inst        80960                       # Number of bytes read from this memory
system.mem_ctrls.dram.bytes_read::.cpu.data       165888                       # Number of bytes read from this memory
system.mem_ctrls.dram.bytes_read::total        246848                       # Number of bytes read from this memory
system.mem_ctrls.dram.bytes_inst_read::.cpu.inst        80960                       # Number of instructions bytes read from this memory
system.mem_ctrls.dram.bytes_inst_read::total        80960                       # Number of instructions bytes read from this memory
system.mem_ctrls.dram.bytes_written::.writebacks         3392                       # Number of bytes written to this memory
system.mem_ctrls.dram.bytes_written::total         3392                       # Number of bytes written to this memory
system.mem_ctrls.dram.num_reads::.cpu.inst         1265                       # Number of read requests responded to by this memory
system.mem_ctrls.dram.num_reads::.cpu.data         2592                       # Number of read requests responded to by this memory
system.mem_ctrls.dram.num_reads::total           3857                       # Number of read requests responded to by this memory
system.mem_ctrls.dram.num_writes::.writebacks           53                       # Number of write requests responded to by this memory
system.mem_ctrls.dram.num_writes::total            53                       # Number of write requests responded to by this memory
system.mem_ctrls.dram.bw_read::.cpu.inst     26399344                       # Total read bandwidth from this memory (bytes/s)
system.mem_ctrls.dram.bw_read::.cpu.data     54092570                       # Total read bandwidth from this memory (bytes/s)
system.mem_ctrls.dram.bw_read::total         80491914                       # Total read bandwidth from this memory (bytes/s)
system.mem_ctrls.dram.bw_inst_read::.cpu.inst     26399344                       # Instruction read bandwidth from this memory (bytes/s)
system.mem_ctrls.dram.bw_inst_read::total     26399344                       # Instruction read bandwidth from this memory (bytes/s)
system.mem_ctrls.dram.bw_write::.writebacks      1106059                       # Write bandwidth from this memory (bytes/s)
system.mem_ctrls.dram.bw_write::total         1106059                       # Write bandwidth from this memory (bytes/s)
system.mem_ctrls.dram.bw_total::.writebacks      1106059                       # Total bandwidth to/from this memory (bytes/s)
system.mem_ctrls.dram.bw_total::.cpu.inst     26399344                       # Total bandwidth to/from this memory (bytes/s)
system.mem_ctrls.dram.bw_total::.cpu.data     54092570                       # Total bandwidth to/from this memory (bytes/s)
system.mem_ctrls.dram.bw_total::total        81597974                       # Total bandwidth to/from this memory (bytes/s)
system.mem_ctrls.dram.readBursts                 3852                       # Number of DRAM read bursts
system.mem_ctrls.dram.writeBursts                  32                       # Number of DRAM write bursts
system.mem_ctrls.dram.perBankRdBursts::0          256                       # Per bank write bursts
system.mem_ctrls.dram.perBankRdBursts::1          309                       # Per bank write bursts
system.mem_ctrls.dram.perBankRdBursts::2          279                       # Per bank write bursts
system.mem_ctrls.dram.perBankRdBursts::3          330                       # Per bank write bursts
system.mem_ctrls.dram.perBankRdBursts::4          246                       # Per bank write bursts
system.mem_ctrls.dram.perBankRdBursts::5          232                       # Per bank write bursts
system.mem_ctrls.dram.perBankRdBursts::6          187                       # Per bank write bursts
system.mem_ctrls.dram.perBankRdBursts::7          257                       # Per bank write bursts
system.mem_ctrls.dram.perBankRdBursts::8          252                       # Per bank write bursts
system.mem_ctrls.dram.perBankRdBursts::9          309                       # Per bank write bursts
system.mem_ctrls.dram.perBankRdBursts::10          208                       # Per bank write bursts
system.mem_ctrls.dram.perBankRdBursts::11          202                       # Per bank write bursts
system.mem_ctrls.dram.perBankRdBursts::12          157                       # Per bank write bursts
system.mem_ctrls.dram.perBankRdBursts::13          216                       # Per bank write bursts
system.mem_ctrls.dram.perBankRdBursts::14          166                       # Per bank write bursts
system.mem_ctrls.dram.perBankRdBursts::15          246                       # Per bank write bursts
system.mem_ctrls.dram.perBankWrBursts::0            2                       # Per bank write bursts
system.mem_ctrls.dram.perBankWrBursts::1            0                       # Per bank write bursts
system.mem_ctrls.dram.perBankWrBursts::2            2                       # Per bank write bursts
system.mem_ctrls.dram.perBankWrBursts::3            0                       # Per bank write bursts
[...]
system.cpu.dcache.WriteReq_hits::total        2858050                       # number of WriteReq hits
system.cpu.dcache.WriteReq_misses::.cpu.data          619                       # number of WriteReq misses
system.cpu.dcache.WriteReq_misses::total          619                       # number of WriteReq misses
system.cpu.dcache.WriteReq_miss_latency::.cpu.data     38996172                       # number of WriteReq miss cycles
system.cpu.dcache.WriteReq_miss_latency::total     38996172                       # number of WriteReq miss cycles
system.cpu.dcache.WriteReq_accesses::.cpu.data      2858669                       # number of WriteReq accesses(hits+misses)
system.cpu.dcache.WriteReq_accesses::total      2858669                       # number of WriteReq accesses(hits+misses)
system.cpu.dcache.WriteReq_miss_rate::.cpu.data     0.000217                       # miss rate for WriteReq accesses
system.cpu.dcache.WriteReq_miss_rate::total     0.000217                       # miss rate for WriteReq accesses
system.cpu.dcache.WriteReq_avg_miss_latency::.cpu.data 62998.662359                       # average WriteReq miss latency
system.cpu.dcache.WriteReq_avg_miss_latency::total 62998.662359                       # average WriteReq miss latency
system.cpu.dcache.WriteReq_mshr_hits::.cpu.data            7                       # number of WriteReq MSHR hits
system.cpu.dcache.WriteReq_mshr_hits::total            7                       # number of WriteReq MSHR hits
system.cpu.dcache.WriteReq_mshr_misses::.cpu.data          612                       # number of WriteReq MSHR misses
system.cpu.dcache.WriteReq_mshr_misses::total          612                       # number of WriteReq MSHR misses
system.cpu.dcache.WriteReq_mshr_miss_latency::.cpu.data     38359552                       # number of WriteReq MSHR miss cycles
system.cpu.dcache.WriteReq_mshr_miss_latency::total     38359552                       # number of WriteReq MSHR miss cycles
system.cpu.dcache.WriteReq_mshr_miss_rate::.cpu.data     0.000214                       # mshr miss rate for WriteReq accesses
system.cpu.dcache.WriteReq_mshr_miss_rate::total     0.000214                       # mshr miss rate for WriteReq accesses
system.cpu.dcache.WriteReq_avg_mshr_miss_latency::.cpu.data 62679.006536                       # average WriteReq mshr miss latency
system.cpu.dcache.WriteReq_avg_mshr_miss_latency::total 62679.006536                       # average WriteReq mshr miss latency
system.cpu.dcache.power_state.pwrStateResidencyTicks::UNDEFINED   3066742822                       # Cumulative time (in ticks) in various power states
system.cpu.dcache.tags.tagsinuse           507.766316                       # Cycle average of tags in use
system.cpu.dcache.tags.total_refs             6519623                       # Total number of references to valid blocks.
system.cpu.dcache.tags.sampled_refs              3118                       # Sample count of references to valid blocks.
system.cpu.dcache.tags.avg_refs           2090.963117                       # Average number of references to valid blocks.
system.cpu.dcache.tags.warmup_cycle            162074                       # Cycle when the warmup percentage was hit.
system.cpu.dcache.tags.occ_blocks::.cpu.data   507.766316                       # Average occupied blocks per requestor
system.cpu.dcache.tags.occ_percent::.cpu.data     0.991731                       # Average percentage of cache occupancy
system.cpu.dcache.tags.occ_percent::total     0.991731                       # Average percentage of cache occupancy
system.cpu.dcache.tags.occ_task_id_blocks::1024          512                       # Occupied blocks per task id
system.cpu.dcache.tags.age_task_id_blocks_1024::3          512                       # Occupied blocks per task id
system.cpu.dcache.tags.occ_task_id_percent::1024            1                       # Percentage of cache occupancy per task id
system.cpu.dcache.tags.tag_accesses          52241574                       # Number of tag accesses
system.cpu.dcache.tags.data_accesses         52241574                       # Number of data accesses
system.cpu.dcache.tags.power_state.pwrStateResidencyTicks::UNDEFINED   3066742822                       # Cumulative time (in ticks) in various power states
system.cpu.power_state.pwrStateResidencyTicks::ON   3066742822                       # Cumulative time (in ticks) in various power states
system.cpu.branchPred.lookups                 4926972                       # Number of BP lookups
system.cpu.branchPred.condPredicted           3720982                       # Number of conditional branches predicted
system.cpu.branchPred.condIncorrect             75878                       # Number of conditional branches incorrect
system.cpu.branchPred.BTBLookups              1924981                       # Number of BTB lookups
system.cpu.branchPred.BTBHits                 1904189                       # Number of BTB hits
system.cpu.branchPred.BTBHitPct             98.919885                       # BTB Hit Percentage
system.cpu.branchPred.RASUsed                  375841                       # Number of times the RAS was used to get a target.
system.cpu.branchPred.RASIncorrect                  5                       # Number of incorrect RAS predictions.
system.cpu.branchPred.indirectLookups          158811                       # Number of indirect predictor lookups.
system.cpu.branchPred.indirectHits             157551                       # Number of indirect target hits.
system.cpu.branchPred.indirectMisses             1260                       # Number of indirect misses.
system.cpu.branchPred.indirectMispredicted          292                       # Number of mispredicted indirect branches.
system.cpu.commit.commitSquashedInsts         1671349                       # The number of squashed insts skipped by commit
system.cpu.commit.commitNonSpecStalls              36                       # The number of times commit has been forced to stall to communicate backwards
system.cpu.commit.branchMispredicts             66410                       # The number of times a branch was mispredicted
system.cpu.commit.numCommittedDist::samples     10610231                       # Number of insts commited each cycle
system.cpu.commit.numCommittedDist::mean     3.587919                       # Number of insts commited each cycle
system.cpu.commit.numCommittedDist::stdev     3.021504                       # Number of insts commited each cycle
system.cpu.commit.numCommittedDist::underflows            0      0.00%      0.00% # Number of insts commited each cycle
system.cpu.commit.numCommittedDist::0         2133687     20.11%     20.11% # Number of insts commited each cycle
system.cpu.commit.numCommittedDist::1         1454748     13.71%     33.82% # Number of insts commited each cycle
system.cpu.commit.numCommittedDist::2         1246371     11.75%     45.57% # Number of insts commited each cycle
system.cpu.commit.numCommittedDist::3         1418973     13.37%     58.94% # Number of insts commited each cycle
system.cpu.commit.numCommittedDist::4          526244      4.96%     63.90% # Number of insts commited each cycle
system.cpu.commit.numCommittedDist::5          499609      4.71%     68.61% # Number of insts commited each cycle
system.cpu.commit.numCommittedDist::6          463635      4.37%     72.98% # Number of insts commited each cycle
system.cpu.commit.numCommittedDist::7          456300      4.30%     77.28% # Number of insts commited each cycle
system.cpu.commit.numCommittedDist::8         2410664     22.72%    100.00% # Number of insts commited each cycle
system.cpu.commit.numCommittedDist::overflows            0      0.00%    100.00% # Number of insts commited each cycle
system.cpu.commit.numCommittedDist::min_value            0                       # Number of insts commited each cycle
system.cpu.commit.numCommittedDist::max_value            8                       # Number of insts commited each cycle
system.cpu.commit.numCommittedDist::total     10610231                       # Number of insts commited each cycle
system.cpu.commit.instsCommitted             20000000                       # Number of instructions committed
system.cpu.commit.opsCommitted               38068652                       # Number of ops (including micro ops) committed
system.cpu.commit.memRefs                     7160520                       # Number of memory references committed
system.cpu.commit.loads                       4301851                       # Number of loads committed
system.cpu.commit.amos                              0                       # Number of atomic instructions committed
system.cpu.commit.membars                           0                       # Number of memory barriers committed
system.cpu.commit.branches                    4417028                       # Number of branches committed
system.cpu.commit.vector                            0                       # Number of committed Vector instructions.
system.cpu.commit.floating                     836838                       # Number of committed floating point instructions.
system.cpu.commit.integer                    37123088                       # Number of committed integer instructions.
system.cpu.commit.functionCalls                338657                       # Number of function calls committed.
system.cpu.commit.committedInstType_0::No_OpClass       481940      1.27%      1.27% # Class of committed instruction
system.cpu.commit.committedInstType_0::IntAlu     29763682     78.18%     79.45% # Class of committed instruction
system.cpu.commit.committedInstType_0::IntMult       106671      0.28%     79.73% # Class of committed instruction
system.cpu.commit.committedInstType_0::IntDiv        58880      0.15%     79.89% # Class of committed instruction
system.cpu.commit.committedInstType_0::FloatAdd        33299      0.09%     79.97% # Class of committed instruction
system.cpu.commit.committedInstType_0::FloatCmp            0      0.00%     79.97% # Class of committed instruction
system.cpu.commit.committedInstType_0::FloatCvt           64      0.00%     79.97% # Class of committed instruction
system.cpu.commit.committedInstType_0::FloatMult            0      0.00%     79.97% # Class of committed instruction
system.cpu.commit.committedInstType_0::FloatMultAcc            0      0.00%     79.97% # Class of committed instruction
system.cpu.commit.committedInstType_0::FloatDiv            0      0.00%     79.97% # Class of committed instruction
system.cpu.commit.committedInstType_0::FloatMisc            0      0.00%     79.97% # Class of committed instruction
system.cpu.commit.committedInstType_0::FloatSqrt            0      0.00%     79.97% # Class of committed instruction
system.cpu.commit.committedInstType_0::SimdAdd          312      0.00%     79.97% # Class of committed instruction
system.cpu.commit.committedInstType_0::SimdAddAcc            0      0.00%     79.97% # Class of committed instruction
system.cpu.commit.committedInstType_0::SimdAlu       148828      0.39%     80.36% # Class of committed instruction
system.cpu.commit.committedInstType_0::SimdCmp            6      0.00%     80.36% # Class of committed instruction
system.cpu.commit.committedInstType_0::SimdCvt        83026      0.22%     80.58% # Class of committed instruction
system.cpu.commit.committedInstType_0::SimdMisc       198365      0.52%     81.10% # Class of committed instruction
system.cpu.commit.committedInstType_0::SimdMult            0      0.00%     81.10% # Class of committed instruction
system.cpu.commit.committedInstType_0::SimdMultAcc            0      0.00%     81.10% # Class of committed instruction
system.cpu.commit.committedInstType_0::SimdShift          135      0.00%     81.10% # Class of committed instruction
system.cpu.commit.committedInstType_0::SimdShiftAcc            0      0.00%     81.10% # Class of committed instruction
system.cpu.commit.committedInstType_0::SimdDiv            0      0.00%     81.10% # Class of committed instruction
system.cpu.commit.committedInstType_0::SimdSqrt            0      0.00%     81.10% # Class of committed instruction
system.cpu.commit.committedInstType_0::SimdFloatAdd            0      0.00%     81.10% # Class of committed instruction
system.cpu.commit.committedInstType_0::SimdFloatAlu            0      0.00%     81.10% # Class of committed instruction
system.cpu.commit.committedInstType_0::SimdFloatCmp            0      0.00%     81.10% # Class of committed instruction
system.cpu.commit.committedInstType_0::SimdFloatCvt        24693      0.06%     81.17% # Class of committed instruction
system.cpu.commit.committedInstType_0::SimdFloatDiv         8231      0.02%     81.19% # Class of committed instruction
system.cpu.commit.committedInstType_0::SimdFloatMisc            0      0.00%     81.19% # Class of committed instruction
system.cpu.commit.committedInstType_0::SimdFloatMult            0      0.00%     81.19% # Class of committed instruction
system.cpu.commit.committedInstType_0::SimdFloatMultAcc            0      0.00%     81.19% # Class of committed instruction
system.cpu.commit.committedInstType_0::SimdFloatSqrt            0      0.00%     81.19% # Class of committed instruction
system.cpu.commit.committedInstType_0::SimdReduceAdd            0      0.00%     81.19% # Class of committed instruction
system.cpu.commit.committedInstType_0::SimdReduceAlu            0      0.00%     81.19% # Class of committed instruction
system.cpu.commit.committedInstType_0::SimdReduceCmp            0      0.00%     81.19% # Class of committed instruction
system.cpu.commit.committedInstType_0::SimdFloatReduceAdd            0      0.00%     81.19% # Class of committed instruction
system.cpu.commit.committedInstType_0::SimdFloatReduceCmp            0      0.00%     81.19% # Class of committed instruction
system.cpu.commit.committedInstType_0::SimdAes            0      0.00%     81.19% # Class of committed instruction
system.cpu.commit.committedInstType_0::SimdAesMix            0      0.00%     81.19% # Class of committed instruction
system.cpu.commit.committedInstType_0::SimdSha1Hash            0      0.00%     81.19% # Class of committed instruction
system.cpu.commit.committedInstType_0::SimdSha1Hash2            0      0.00%     81.19% # Class of committed instruction
system.cpu.commit.committedInstType_0::SimdSha256Hash            0      0.00%     81.19% # Class of committed instruction
system.cpu.commit.committedInstType_0::SimdSha256Hash2            0      0.00%     81.19% # Class of committed instruction
system.cpu.commit.committedInstType_0::SimdShaSigma2            0      0.00%     81.19% # Class of committed instruction
system.cpu.commit.committedInstType_0::SimdShaSigma3            0      0.00%     81.19% # Class of committed instruction
system.cpu.commit.committedInstType_0::SimdPredAlu            0      0.00%     81.19% # Class of committed instruction
system.cpu.commit.committedInstType_0::MemRead      4185725     11.00%     92.19% # Class of committed instruction
system.cpu.commit.committedInstType_0::MemWrite      2701067      7.10%     99.28% # Class of committed instruction
system.cpu.commit.committedInstType_0::FloatMemRead       116126      0.31%     99.59% # Class of committed instruction
system.cpu.commit.committedInstType_0::FloatMemWrite       157602      0.41%    100.00% # Class of committed instruction
system.cpu.commit.committedInstType_0::IprAccess            0      0.00%    100.00% # Class of committed instruction
system.cpu.commit.committedInstType_0::InstPrefetch            0      0.00%    100.00% # Class of committed instruction
system.cpu.commit.committedInstType_0::total     38068652                       # Class of committed instruction
system.cpu.commit.commitEligibleSamples       2410664                       # number cycles where commit BW limit reached
system.cpu.fetch.icacheStallCycles            3116392                       # Number of cycles fetch is stalled on an Icache miss
system.cpu.fetch.insts                       21808044                       # Number of instructions fetch has processed
system.cpu.fetch.branches                     4926972                       # Number of branches that fetch encountered
system.cpu.fetch.predictedBranches            2437581                       # Number of branches that fetch has predicted taken
system.cpu.fetch.cycles                       7662660                       # Number of cycles fetch has run and was not squashing or blocked
system.cpu.fetch.squashCycles                  169660                       # Number of cycles fetch has spent squashing
system.cpu.fetch.miscStallCycles                  296                       # Number of cycles fetch has spent waiting on interrupts,or bad addresses, or out of MSHRs
system.cpu.fetch.pendingTrapStallCycles          2034                       # Number of stall cycles due to pending traps
system.cpu.fetch.pendingQuiesceStallCycles            9                       # Number of stall cycles due to pending quiesce instructions
system.cpu.fetch.icacheWaitRetryStallCycles           26                       # Number of stall cycles due to full MSHR
system.cpu.fetch.cacheLines                   3012522                       # Number of cache lines fetched
system.cpu.fetch.icacheSquashes                 27986                       # Number of outstanding Icache misses that were squashed
system.cpu.fetch.nisnDist::samples           10866247                       # Number of instructions fetched each cycle (Total)
system.cpu.fetch.nisnDist::mean              3.830980                       # Number of instructions fetched each cycle (Total)
system.cpu.fetch.nisnDist::stdev             3.538791                       # Number of instructions fetched each cycle (Total)
system.cpu.fetch.nisnDist::underflows               0      0.00%      0.00% # Number of instructions fetched each cycle (Total)
system.cpu.fetch.nisnDist::0                  4029951     37.09%     37.09% # Number of instructions fetched each cycle (Total)
system.cpu.fetch.nisnDist::1                   516775      4.76%     41.84% # Number of instructions fetched each cycle (Total)
system.cpu.fetch.nisnDist::2                   504889      4.65%     46.49% # Number of instructions fetched each cycle (Total)
system.cpu.fetch.nisnDist::3                   421994      3.88%     50.37% # Number of instructions fetched each cycle (Total)
system.cpu.fetch.nisnDist::4                   396344      3.65%     54.02% # Number of instructions fetched each cycle (Total)
system.cpu.fetch.nisnDist::5                   564068      5.19%     59.21% # Number of instructions fetched each cycle (Total)
system.cpu.fetch.nisnDist::6                   265635      2.44%     61.66% # Number of instructions fetched each cycle (Total)
system.cpu.fetch.nisnDist::7                   496414      4.57%     66.22% # Number of instructions fetched each cycle (Total)
system.cpu.fetch.nisnDist::8                  3670177     33.78%    100.00% # Number of instructions fetched each cycle (Total)
system.cpu.fetch.nisnDist::overflows                0      0.00%    100.00% # Number of instructions fetched each cycle (Total)
system.cpu.fetch.nisnDist::min_value                0                       # Number of instructions fetched each cycle (Total)
system.cpu.fetch.nisnDist::max_value                8                       # Number of instructions fetched each cycle (Total)
system.cpu.fetch.nisnDist::total             10866247                       # Number of instructions fetched each cycle (Total)
system.cpu.fetch.branchRate                  0.446630                       # Number of branch fetches per cycle
system.cpu.fetch.rate                        1.976897                       # Number of inst fetches per cycle

---------- End Simulation Statistics   ----------
